#======================================================================
# CRYSTAL DATA (generated from VESTA)
#----------------------------------------------------------------------
data_VESTA_phase_1

_chemical_name_common                  'unknown system'
_cell_length_a                         11.632905
_cell_length_b                         11.632905
_cell_length_c                         9.569502
_cell_angle_alpha                      90.000000
_cell_angle_beta                       90.000000
_cell_angle_gamma                      90.000000
_space_group_name_H-M_alt              'P 1'
_space_group_IT_number                 1

loop_
_space_group_symop_operation_xyz
   'x, y, z'

loop_
   _atom_site_label
   _atom_site_occupancy
   _atom_site_fract_x
   _atom_site_fract_y
   _atom_site_fract_z
   _atom_site_adp_type
   _atom_site_U_iso_or_equiv
   _atom_site_type_symbol
   Ti1         1.000     0.999765     0.333473     0.003088    Uiso  ? Ti
   Ti2         1.000     0.999669     0.666733     0.003047    Uiso  ? Ti
   Ti3         1.000     0.333066     0.000171     0.996846    Uiso  ? Ti
   Ti4         1.000     0.333068     0.333467     0.999947    Uiso  ? Ti
   Ti5         1.000     0.332970     0.666858     0.999949    Uiso  ? Ti
   Ti6         1.000     0.666329     0.000034     0.996863    Uiso  ? Ti
   Ti7         1.000     0.666463     0.333338     0.999997    Uiso  ? Ti
   Ti8         1.000     0.666364     0.666742     0.999989    Uiso  ? Ti
   Ti9         1.000     0.166443     0.166799     0.499956    Uiso  ? Ti
   Ti10        1.000     0.166636     0.500177     0.500571    Uiso  ? Ti
   Ti11        1.000     0.166343     0.833567     0.499950    Uiso  ? Ti
   Ti12        1.000     0.499821     0.166939     0.499334    Uiso  ? Ti
   Ti13        1.000     0.499816     0.500124     0.499964    Uiso  ? Ti
   Ti14        1.000     0.499731     0.833310     0.499318    Uiso  ? Ti
   Ti15        1.000     0.833208     0.166704     0.500001    Uiso  ? Ti
   Ti16        1.000     0.832999     0.500094     0.500620    Uiso  ? Ti
   Ti17        1.000     0.833142     0.833488     0.499982    Uiso  ? Ti
   Ti18        1.000     0.999828     0.166444     0.250318    Uiso  ? Ti
   Ti19        1.000     0.999807     0.500124     0.251618    Uiso  ? Ti
   Ti20        1.000     0.999733     0.833767     0.250286    Uiso  ? Ti
   Ti21        1.000     0.333074     0.166368     0.249422    Uiso  ? Ti
   Ti22        1.000     0.333098     0.500162     0.250042    Uiso  ? Ti
   Ti23        1.000     0.332979     0.833962     0.249412    Uiso  ? Ti
   Ti24        1.000     0.666578     0.166235     0.249462    Uiso  ? Ti
   Ti25        1.000     0.666551     0.500044     0.250081    Uiso  ? Ti
   Ti26        1.000     0.666482     0.833848     0.249460    Uiso  ? Ti
   Ti27        1.000     0.166013     0.000184     0.749616    Uiso  ? Ti
   Ti28        1.000     0.165945     0.333437     0.750479    Uiso  ? Ti
   Ti29        1.000     0.165896     0.666921     0.750470    Uiso  ? Ti
   Ti30        1.000     0.499686     0.000111     0.748317    Uiso  ? Ti
   Ti31        1.000     0.499766     0.333385     0.749860    Uiso  ? Ti
   Ti32        1.000     0.499686     0.666849     0.749850    Uiso  ? Ti
   Ti33        1.000     0.833368     0.000078     0.749662    Uiso  ? Ti
   Ti34        1.000     0.833545     0.333350     0.750518    Uiso  ? Ti
   Ti35        1.000     0.833470     0.666842     0.750507    Uiso  ? Ti
   O1          1.000     0.999833     0.167622     0.460787    Uiso  ? O
   O2          1.000     0.999824     0.500143     0.460900    Uiso  ? O
   O3          1.000     0.999754     0.832610     0.460758    Uiso  ? O
   O4          1.000     0.333437     0.167103     0.458687    Uiso  ? O
   O5          1.000     0.333404     0.500153     0.459305    Uiso  ? O
   O6          1.000     0.333351     0.833236     0.458683    Uiso  ? O
   O7          1.000     0.666221     0.167015     0.458733    Uiso  ? O
   O8          1.000     0.666248     0.500072     0.459343    Uiso  ? O
   O9          1.000     0.666144     0.833145     0.458721    Uiso  ? O
   O10         1.000     0.171922     0.000209     0.954454    Uiso  ? O
   O11         1.000     0.167006     0.334623     0.959119    Uiso  ? O
   O12         1.000     0.166929     0.665614     0.959109    Uiso  ? O
   O13         1.000     0.499718     0.000078     0.956856    Uiso  ? O
   O14         1.000     0.499775     0.333977     0.958611    Uiso  ? O
   O15         1.000     0.499688     0.666184     0.958596    Uiso  ? O
   O16         1.000     0.827524     0.000004     0.954494    Uiso  ? O
   O17         1.000     0.832545     0.334577     0.959150    Uiso  ? O
   O18         1.000     0.832463     0.665553     0.959140    Uiso  ? O
   O19         1.000     0.332891     0.000152     0.207989    Uiso  ? O
   O20         1.000     0.333264     0.333582     0.209121    Uiso  ? O
   O21         1.000     0.333219     0.666722     0.209114    Uiso  ? O
   O22         1.000     0.666673     0.000042     0.208025    Uiso  ? O
   O23         1.000     0.666429     0.333469     0.209166    Uiso  ? O
   O24         1.000     0.666339     0.666614     0.209166    Uiso  ? O
   O25         1.000     0.999804     0.000100     0.215238    Uiso  ? O
   O26         1.000     0.999854     0.334804     0.212942    Uiso  ? O
   O27         1.000     0.999771     0.665409     0.212907    Uiso  ? O
   O28         1.000     0.167349     0.167304     0.708518    Uiso  ? O
   O29         1.000     0.166499     0.500172     0.709399    Uiso  ? O
   O30         1.000     0.167209     0.833043     0.708525    Uiso  ? O
   O31         1.000     0.499758     0.167286     0.707999    Uiso  ? O
   O32         1.000     0.499760     0.500116     0.708880    Uiso  ? O
   O33         1.000     0.499718     0.832932     0.707975    Uiso  ? O
   O34         1.000     0.832225     0.167218     0.708573    Uiso  ? O
   O35         1.000     0.832993     0.500091     0.709438    Uiso  ? O
   O36         1.000     0.832214     0.832962     0.708552    Uiso  ? O
   O37         1.000     0.999772     0.172300     0.045491    Uiso  ? O
   O38         1.000     0.999761     0.500098     0.043082    Uiso  ? O
   O39         1.000     0.999730     0.827906     0.045454    Uiso  ? O
   O40         1.000     0.334314     0.167379     0.040792    Uiso  ? O
   O41         1.000     0.333662     0.500151     0.041297    Uiso  ? O
   O42         1.000     0.334184     0.832926     0.040780    Uiso  ? O
   O43         1.000     0.665280     0.167262     0.040828    Uiso  ? O
   O44         1.000     0.665873     0.500043     0.041342    Uiso  ? O
   O45         1.000     0.665185     0.832809     0.040830    Uiso  ? O
   O46         1.000     0.167288     0.000173     0.539148    Uiso  ? O
   O47         1.000     0.166774     0.333780     0.541209    Uiso  ? O
   O48         1.000     0.166744     0.666564     0.541208    Uiso  ? O
   O49         1.000     0.499790     0.000118     0.539038    Uiso  ? O
   O50         1.000     0.499843     0.333689     0.540607    Uiso  ? O
   O51         1.000     0.499758     0.666539     0.540585    Uiso  ? O
   O52         1.000     0.832309     0.000093     0.539193    Uiso  ? O
   O53         1.000     0.832914     0.333696     0.541253    Uiso  ? O
   O54         1.000     0.832829     0.666484     0.541242    Uiso  ? O
   O55         1.000     0.334409     0.000111     0.787003    Uiso  ? O
   O56         1.000     0.333200     0.333612     0.790773    Uiso  ? O
   O57         1.000     0.333129     0.666751     0.790763    Uiso  ? O
   O58         1.000     0.665020     0.000064     0.787027    Uiso  ? O
   O59         1.000     0.666336     0.333500     0.790812    Uiso  ? O
   O60         1.000     0.666264     0.666663     0.790805    Uiso  ? O
   O61         1.000     0.999714     0.000173     0.784726    Uiso  ? O
   O62         1.000     0.999766     0.333229     0.791938    Uiso  ? O
   O63         1.000     0.999698     0.666997     0.791923    Uiso  ? O
   O64         1.000     0.166964     0.167667     0.291379    Uiso  ? O
   O65         1.000     0.167007     0.500152     0.291919    Uiso  ? O
   O66         1.000     0.166878     0.832574     0.291372    Uiso  ? O
   O67         1.000     0.499828     0.166843     0.290516    Uiso  ? O
   O68         1.000     0.499829     0.500076     0.291042    Uiso  ? O
   O69         1.000     0.499740     0.833344     0.290501    Uiso  ? O
   O70         1.000     0.832704     0.167581     0.291434    Uiso  ? O
   O71         1.000     0.832648     0.500062     0.291957    Uiso  ? O
   O72         1.000     0.832623     0.832522     0.291408    Uiso  ? O
   STE         1.000     0.999719     0.000112     0.999988    Uiso  ? Eu

loop_
   _atom_site_moment_label
   _atom_site_moment_crystalaxis_x
   _atom_site_moment_crystalaxis_y
   _atom_site_moment_crystalaxis_z
   Ti1            0.000000     0.000000     0.000000
   Ti2            0.000000     0.000000     0.000000
   Ti3            0.000000     0.000000     0.000000
   Ti4            0.000000     0.000000     0.000000
   Ti5            0.000000     0.000000     0.000000
   Ti6            0.000000     0.000000     0.000000
   Ti7            0.000000     0.000000     0.000000
   Ti8            0.000000     0.000000     0.000000
   Ti9            0.000000     0.000000     0.000000
   Ti10           0.000000     0.000000     0.000000
   Ti11           0.000000     0.000000     0.000000
   Ti12           0.000000     0.000000     0.000000
   Ti13           0.000000     0.000000     0.000000
   Ti14           0.000000     0.000000     0.000000
   Ti15           0.000000     0.000000     0.000000
   Ti16           0.000000     0.000000     0.000000
   Ti17           0.000000     0.000000     0.000000
   Ti18           0.000000     0.000000     0.000000
   Ti19           0.000000     0.000000     0.000000
   Ti20           0.000000     0.000000     0.000000
   Ti21           0.000000     0.000000     0.000000
   Ti22           0.000000     0.000000     0.000000
   Ti23           0.000000     0.000000     0.000000
   Ti24           0.000000     0.000000     0.000000
   Ti25           0.000000     0.000000     0.000000
   Ti26           0.000000     0.000000     0.000000
   Ti27           0.000000     0.000000     0.000000
   Ti28           0.000000     0.000000     0.000000
   Ti29           0.000000     0.000000     0.000000
   Ti30           0.000000     0.000000     0.000000
   Ti31           0.000000     0.000000     0.000000
   Ti32           0.000000     0.000000     0.000000
   Ti33           0.000000     0.000000     0.000000
   Ti34           0.000000     0.000000     0.000000
   Ti35           0.000000     0.000000     0.000000
   O1             0.000000     0.000000     0.000000
   O2             0.000000     0.000000     0.000000
   O3             0.000000     0.000000     0.000000
   O4             0.000000     0.000000     0.000000
   O5             0.000000     0.000000     0.000000
   O6             0.000000     0.000000     0.000000
   O7             0.000000     0.000000     0.000000
   O8             0.000000     0.000000     0.000000
   O9             0.000000     0.000000     0.000000
   O10            0.647139     0.006514    -0.417135
   O11            0.000000     0.000000     0.000000
   O12            0.000000     0.000000     0.000000
   O13            0.000000     0.000000     0.000000
   O14            0.000000     0.000000     0.000000
   O15            0.000000     0.000000     0.000000
   O16           -0.646092    -0.006165    -0.415125
   O17            0.000000     0.000000     0.000000
   O18            0.000000     0.000000     0.000000
   O19            0.000000     0.000000     0.000000
   O20            0.000000     0.000000     0.000000
   O21            0.000000     0.000000     0.000000
   O22            0.000000     0.000000     0.000000
   O23            0.000000     0.000000     0.000000
   O24            0.000000     0.000000     0.000000
   O25            0.001861    -0.000931     0.585749
   O26            0.000000     0.000000     0.000000
   O27            0.000000     0.000000     0.000000
   O28            0.000000     0.000000     0.000000
   O29            0.000000     0.000000     0.000000
   O30            0.000000     0.000000     0.000000
   O31            0.000000     0.000000     0.000000
   O32            0.000000     0.000000     0.000000
   O33            0.000000     0.000000     0.000000
   O34            0.000000     0.000000     0.000000
   O35            0.000000     0.000000     0.000000
   O36            0.000000     0.000000     0.000000
   O37            0.002676     0.645510     0.416560
   O38            0.000000     0.000000     0.000000
   O39           -0.000233    -0.647836     0.414934
   O40            0.000000     0.000000     0.000000
   O41            0.000000     0.000000     0.000000
   O42            0.000000     0.000000     0.000000
   O43            0.000000     0.000000     0.000000
   O44            0.000000     0.000000     0.000000
   O45            0.000000     0.000000     0.000000
   O46            0.000000     0.000000     0.000000
   O47            0.000000     0.000000     0.000000
   O48            0.000000     0.000000     0.000000
   O49            0.000000     0.000000     0.000000
   O50            0.000000     0.000000     0.000000
   O51            0.000000     0.000000     0.000000
   O52            0.000000     0.000000     0.000000
   O53            0.000000     0.000000     0.000000
   O54            0.000000     0.000000     0.000000
   O55            0.000000     0.000000     0.000000
   O56            0.000000     0.000000     0.000000
   O57            0.000000     0.000000     0.000000
   O58            0.000000     0.000000     0.000000
   O59            0.000000     0.000000     0.000000
   O60            0.000000     0.000000     0.000000
   O61           -0.001861     0.003257    -0.585558
   O62            0.000000     0.000000     0.000000
   O63            0.000000     0.000000     0.000000
   O64            0.000000     0.000000     0.000000
   O65            0.000000     0.000000     0.000000
   O66            0.000000     0.000000     0.000000
   O67            0.000000     0.000000     0.000000
   O68            0.000000     0.000000     0.000000
   O69            0.000000     0.000000     0.000000
   O70            0.000000     0.000000     0.000000
   O71            0.000000     0.000000     0.000000
   O72            0.000000     0.000000     0.000000
   Eu1            0.000000     0.000000     0.000000
