#======================================================================
# CRYSTAL DATA (generated from VESTA)
#----------------------------------------------------------------------
data_VESTA_phase_1

_chemical_name_common                  'unknown system'
_cell_length_a                         13.854106
_cell_length_b                         13.854106
_cell_length_c                         11.999223
_cell_angle_alpha                      90.000000
_cell_angle_beta                       90.000000
_cell_angle_gamma                      90.000000
_space_group_name_H-M_alt              'P 1'
_space_group_IT_number                 1

loop_
_space_group_symop_operation_xyz
   'x, y, z'

loop_
   _atom_site_label
   _atom_site_occupancy
   _atom_site_fract_x
   _atom_site_fract_y
   _atom_site_fract_z
   _atom_site_adp_type
   _atom_site_U_iso_or_equiv
   _atom_site_type_symbol
   Ti1         1.000     0.166636     0.166745     0.248446    Uiso  ? Ti
   Ti2         1.000     0.166626     0.166778     0.500016    Uiso  ? Ti
   Ti3         1.000     0.166607     0.166738     0.751593    Uiso  ? Ti
   Ti4         1.000     0.166695     0.499704     0.000011    Uiso  ? Ti
   Ti5         1.000     0.167014     0.499919     0.250044    Uiso  ? Ti
   Ti6         1.000     0.166715     0.499873     0.500000    Uiso  ? Ti
   Ti7         1.000     0.166968     0.500005     0.749953    Uiso  ? Ti
   Ti8         1.000     0.166546     0.833616     0.000021    Uiso  ? Ti
   Ti9         1.000     0.166292     0.833353     0.250042    Uiso  ? Ti
   Ti10        1.000     0.166598     0.833402     0.500011    Uiso  ? Ti
   Ti11        1.000     0.166222     0.833360     0.750003    Uiso  ? Ti
   Ti12        1.000     0.499643     0.166768     0.000038    Uiso  ? Ti
   Ti13        1.000     0.499989     0.167026     0.250095    Uiso  ? Ti
   Ti14        1.000     0.499863     0.166744     0.500049    Uiso  ? Ti
   Ti15        1.000     0.499873     0.167075     0.749994    Uiso  ? Ti
   Ti16        1.000     0.499854     0.499972     0.000006    Uiso  ? Ti
   Ti17        1.000     0.499814     0.499856     0.249902    Uiso  ? Ti
   Ti18        1.000     0.500006     0.500041     0.500004    Uiso  ? Ti
   Ti19        1.000     0.499739     0.499851     0.750111    Uiso  ? Ti
   Ti20        1.000     0.500183     0.833134     0.999999    Uiso  ? Ti
   Ti21        1.000     0.500051     0.833272     0.250033    Uiso  ? Ti
   Ti22        1.000     0.499928     0.833440     0.500003    Uiso  ? Ti
   Ti23        1.000     0.500030     0.833320     0.749966    Uiso  ? Ti
   Ti24        1.000     0.833470     0.166629     0.999999    Uiso  ? Ti
   Ti25        1.000     0.833251     0.166292     0.250028    Uiso  ? Ti
   Ti26        1.000     0.833338     0.166621     0.500001    Uiso  ? Ti
   Ti27        1.000     0.833236     0.166343     0.749975    Uiso  ? Ti
   Ti28        1.000     0.833003     0.500338     0.999977    Uiso  ? Ti
   Ti29        1.000     0.833192     0.500200     0.250003    Uiso  ? Ti
   Ti30        1.000     0.833333     0.500081     0.499972    Uiso  ? Ti
   Ti31        1.000     0.833168     0.500187     0.749946    Uiso  ? Ti
   Ti32        1.000     0.833350     0.833408     0.000002    Uiso  ? Ti
   Ti33        1.000     0.833493     0.833505     0.249896    Uiso  ? Ti
   Ti34        1.000     0.833340     0.833367     0.500011    Uiso  ? Ti
   Ti35        1.000     0.833439     0.833503     0.750109    Uiso  ? Ti
   Ti36        1.000     0.000529     0.000607     0.125319    Uiso  ? Ti
   Ti37        1.000     0.000358     0.000400     0.375117    Uiso  ? Ti
   Ti38        1.000     0.000337     0.000403     0.624909    Uiso  ? Ti
   Ti39        1.000     0.000485     0.000638     0.874710    Uiso  ? Ti
   Ti40        1.000     0.999622     0.333600     0.124882    Uiso  ? Ti
   Ti41        1.000     0.999885     0.333327     0.374856    Uiso  ? Ti
   Ti42        1.000     0.999840     0.333385     0.625128    Uiso  ? Ti
   Ti43        1.000     0.999674     0.333570     0.875088    Uiso  ? Ti
   Ti44        1.000     0.000026     0.666651     0.124989    Uiso  ? Ti
   Ti45        1.000     0.000089     0.666635     0.374983    Uiso  ? Ti
   Ti46        1.000     0.000075     0.666624     0.624995    Uiso  ? Ti
   Ti47        1.000     0.999938     0.666712     0.875028    Uiso  ? Ti
   Ti48        1.000     0.333461     0.999835     0.124943    Uiso  ? Ti
   Ti49        1.000     0.333291     0.999986     0.374907    Uiso  ? Ti
   Ti50        1.000     0.333206     0.000033     0.625176    Uiso  ? Ti
   Ti51        1.000     0.333467     0.999779     0.875158    Uiso  ? Ti
   Ti52        1.000     0.332813     0.332749     0.125338    Uiso  ? Ti
   Ti53        1.000     0.333034     0.333037     0.375128    Uiso  ? Ti
   Ti54        1.000     0.332988     0.333032     0.624922    Uiso  ? Ti
   Ti55        1.000     0.332662     0.332854     0.874736    Uiso  ? Ti
   Ti56        1.000     0.333281     0.666705     0.124994    Uiso  ? Ti
   Ti57        1.000     0.333275     0.666710     0.374996    Uiso  ? Ti
   Ti58        1.000     0.333231     0.666771     0.625017    Uiso  ? Ti
   Ti59        1.000     0.333278     0.666714     0.875019    Uiso  ? Ti
   Ti60        1.000     0.666633     0.999979     0.124968    Uiso  ? Ti
   Ti61        1.000     0.666576     0.000078     0.375000    Uiso  ? Ti
   Ti62        1.000     0.666576     0.000099     0.625021    Uiso  ? Ti
   Ti63        1.000     0.666559     0.000056     0.875001    Uiso  ? Ti
   Ti64        1.000     0.666608     0.333406     0.124993    Uiso  ? Ti
   Ti65        1.000     0.666748     0.333302     0.374996    Uiso  ? Ti
   Ti66        1.000     0.666680     0.333345     0.625017    Uiso  ? Ti
   Ti67        1.000     0.666602     0.333394     0.875017    Uiso  ? Ti
   Ti68        1.000     0.666560     0.666711     0.125095    Uiso  ? Ti
   Ti69        1.000     0.666627     0.666706     0.375063    Uiso  ? Ti
   Ti70        1.000     0.666546     0.666735     0.624924    Uiso  ? Ti
   Ti71        1.000     0.666544     0.666685     0.874877    Uiso  ? Ti
   O1          1.000     0.234138     0.234132     0.131106    Uiso  ? O
   O2          1.000     0.232129     0.232242     0.375880    Uiso  ? O
   O3          1.000     0.232105     0.232243     0.624169    Uiso  ? O
   O4          1.000     0.233979     0.234266     0.868938    Uiso  ? O
   O5          1.000     0.231763     0.565301     0.124822    Uiso  ? O
   O6          1.000     0.231514     0.565675     0.375231    Uiso  ? O
   O7          1.000     0.231468     0.565734     0.624760    Uiso  ? O
   O8          1.000     0.231759     0.565311     0.875206    Uiso  ? O
   O9          1.000     0.231822     0.898201     0.125315    Uiso  ? O
   O10         1.000     0.231834     0.898211     0.375013    Uiso  ? O
   O11         1.000     0.231762     0.898255     0.625037    Uiso  ? O
   O12         1.000     0.231813     0.898188     0.874716    Uiso  ? O
   O13         1.000     0.565238     0.231847     0.124821    Uiso  ? O
   O14         1.000     0.565697     0.231527     0.375284    Uiso  ? O
   O15         1.000     0.565626     0.231572     0.624806    Uiso  ? O
   O16         1.000     0.565220     0.231846     0.875211    Uiso  ? O
   O17         1.000     0.565316     0.565406     0.125142    Uiso  ? O
   O18         1.000     0.565260     0.565312     0.374971    Uiso  ? O
   O19         1.000     0.565215     0.565325     0.625051    Uiso  ? O
   O20         1.000     0.565299     0.565392     0.874850    Uiso  ? O
   O21         1.000     0.565350     0.898264     0.125075    Uiso  ? O
   O22         1.000     0.565252     0.898391     0.375042    Uiso  ? O
   O23         1.000     0.565272     0.898380     0.624966    Uiso  ? O
   O24         1.000     0.565303     0.898323     0.874924    Uiso  ? O
   O25         1.000     0.898059     0.231895     0.125302    Uiso  ? O
   O26         1.000     0.898153     0.231834     0.374974    Uiso  ? O
   O27         1.000     0.898105     0.231899     0.625015    Uiso  ? O
   O28         1.000     0.898073     0.231897     0.874704    Uiso  ? O
   O29         1.000     0.898221     0.565436     0.125053    Uiso  ? O
   O30         1.000     0.898295     0.565394     0.375021    Uiso  ? O
   O31         1.000     0.898309     0.565368     0.624948    Uiso  ? O
   O32         1.000     0.898168     0.565476     0.874911    Uiso  ? O
   O33         1.000     0.897977     0.898014     0.124977    Uiso  ? O
   O34         1.000     0.898216     0.898243     0.375282    Uiso  ? O
   O35         1.000     0.898202     0.898242     0.624741    Uiso  ? O
   O36         1.000     0.897964     0.898009     0.875022    Uiso  ? O
   O37         1.000     0.269856     0.063495     0.000019    Uiso  ? O
   O38         1.000     0.268730     0.064435     0.250310    Uiso  ? O
   O39         1.000     0.268406     0.064748     0.500003    Uiso  ? O
   O40         1.000     0.268737     0.064483     0.749823    Uiso  ? O
   O41         1.000     0.268019     0.398606     0.000103    Uiso  ? O
   O42         1.000     0.269216     0.400046     0.250886    Uiso  ? O
   O43         1.000     0.268562     0.399247     0.500027    Uiso  ? O
   O44         1.000     0.269204     0.400156     0.749088    Uiso  ? O
   O45         1.000     0.268358     0.732080     0.000007    Uiso  ? O
   O46         1.000     0.268177     0.731863     0.249979    Uiso  ? O
   O47         1.000     0.268459     0.732158     0.499991    Uiso  ? O
   O48         1.000     0.268157     0.731896     0.750056    Uiso  ? O
   O49         1.000     0.601238     0.064946     0.000030    Uiso  ? O
   O50         1.000     0.601441     0.065087     0.249945    Uiso  ? O
   O51         1.000     0.601155     0.064863     0.500021    Uiso  ? O
   O52         1.000     0.601399     0.065141     0.750025    Uiso  ? O
   O53         1.000     0.601625     0.398508     0.999998    Uiso  ? O
   O54         1.000     0.601543     0.398373     0.250120    Uiso  ? O
   O55         1.000     0.601649     0.398441     0.499987    Uiso  ? O
   O56         1.000     0.601524     0.398397     0.749918    Uiso  ? O
   O57         1.000     0.601606     0.731862     0.999981    Uiso  ? O
   O58         1.000     0.601571     0.731915     0.250129    Uiso  ? O
   O59         1.000     0.601509     0.731987     0.499973    Uiso  ? O
   O60         1.000     0.601547     0.731938     0.749897    Uiso  ? O
   O61         1.000     0.934613     0.065253     0.000025    Uiso  ? O
   O62         1.000     0.933253     0.064159     0.250897    Uiso  ? O
   O63         1.000     0.934080     0.064788     0.500014    Uiso  ? O
   O64         1.000     0.933242     0.064191     0.749107    Uiso  ? O
   O65         1.000     0.934062     0.399344     0.999964    Uiso  ? O
   O66         1.000     0.934384     0.399003     0.250247    Uiso  ? O
   O67         1.000     0.934587     0.398817     0.499964    Uiso  ? O
   O68         1.000     0.934390     0.399036     0.749781    Uiso  ? O
   O69         1.000     0.934959     0.731792     0.000036    Uiso  ? O
   O70         1.000     0.935096     0.731894     0.250078    Uiso  ? O
   O71         1.000     0.935039     0.731813     0.500002    Uiso  ? O
   O72         1.000     0.935070     0.731912     0.749887    Uiso  ? O
   O73         1.000     0.063340     0.269983     0.000017    Uiso  ? O
   O74         1.000     0.064344     0.268860     0.250205    Uiso  ? O
   O75         1.000     0.064612     0.268525     0.500024    Uiso  ? O
   O76         1.000     0.064292     0.268836     0.749725    Uiso  ? O
   O77         1.000     0.064893     0.601310     0.999975    Uiso  ? O
   O78         1.000     0.065096     0.601462     0.249972    Uiso  ? O
   O79         1.000     0.064849     0.601208     0.499986    Uiso  ? O
   O80         1.000     0.065054     0.601495     0.750070    Uiso  ? O
   O81         1.000     0.065178     0.934743     0.000002    Uiso  ? O
   O82         1.000     0.064150     0.933353     0.250899    Uiso  ? O
   O83         1.000     0.064761     0.934150     0.500011    Uiso  ? O
   O84         1.000     0.064116     0.933366     0.749145    Uiso  ? O
   O85         1.000     0.398499     0.268043     0.999957    Uiso  ? O
   O86         1.000     0.400081     0.269223     0.250953    Uiso  ? O
   O87         1.000     0.399183     0.268563     0.500025    Uiso  ? O
   O88         1.000     0.399949     0.269225     0.749181    Uiso  ? O
   O89         1.000     0.398397     0.601717     0.000007    Uiso  ? O
   O90         1.000     0.398326     0.601601     0.250071    Uiso  ? O
   O91         1.000     0.398388     0.601691     0.500026    Uiso  ? O
   O92         1.000     0.398276     0.601598     0.749919    Uiso  ? O
   O93         1.000     0.399211     0.934192     0.000050    Uiso  ? O
   O94         1.000     0.398914     0.934507     0.250240    Uiso  ? O
   O95         1.000     0.398696     0.934707     0.500063    Uiso  ? O
   O96         1.000     0.398866     0.934504     0.749773    Uiso  ? O
   O97         1.000     0.731967     0.268447     0.000005    Uiso  ? O
   O98         1.000     0.731808     0.268230     0.249933    Uiso  ? O
   O99         1.000     0.732112     0.268515     0.500028    Uiso  ? O
   O100        1.000     0.731772     0.268240     0.750054    Uiso  ? O
   O101        1.000     0.731716     0.601736     0.999997    Uiso  ? O
   O102        1.000     0.731802     0.601681     0.250085    Uiso  ? O
   O103        1.000     0.731852     0.601630     0.500021    Uiso  ? O
   O104        1.000     0.731774     0.601687     0.749862    Uiso  ? O
   O105        1.000     0.731714     0.934991     0.999958    Uiso  ? O
   O106        1.000     0.731854     0.935093     0.250102    Uiso  ? O
   O107        1.000     0.731758     0.935048     0.500004    Uiso  ? O
   O108        1.000     0.731824     0.935113     0.749936    Uiso  ? O
   O109        1.000     0.099191     0.099278     0.131047    Uiso  ? O
   O110        1.000     0.101145     0.101296     0.375846    Uiso  ? O
   O111        1.000     0.101172     0.101255     0.624186    Uiso  ? O
   O112        1.000     0.099139     0.099312     0.869008    Uiso  ? O
   O113        1.000     0.101453     0.435131     0.125320    Uiso  ? O
   O114        1.000     0.101542     0.435011     0.375000    Uiso  ? O
   O115        1.000     0.101515     0.435049     0.625011    Uiso  ? O
   O116        1.000     0.101511     0.435091     0.874676    Uiso  ? O
   O117        1.000     0.101685     0.767875     0.124833    Uiso  ? O
   O118        1.000     0.101966     0.767495     0.375242    Uiso  ? O
   O119        1.000     0.101973     0.767471     0.624776    Uiso  ? O
   O120        1.000     0.101642     0.767897     0.875205    Uiso  ? O
   O121        1.000     0.435045     0.101583     0.125368    Uiso  ? O
   O122        1.000     0.435004     0.101584     0.375024    Uiso  ? O
   O123        1.000     0.434954     0.101607     0.625041    Uiso  ? O
   O124        1.000     0.435075     0.101520     0.874710    Uiso  ? O
   O125        1.000     0.435330     0.435323     0.124980    Uiso  ? O
   O126        1.000     0.435114     0.435184     0.375297    Uiso  ? O
   O127        1.000     0.435138     0.435128     0.624708    Uiso  ? O
   O128        1.000     0.435270     0.435352     0.875051    Uiso  ? O
   O129        1.000     0.435111     0.767879     0.125085    Uiso  ? O
   O130        1.000     0.435044     0.767964     0.375051    Uiso  ? O
   O131        1.000     0.435046     0.767970     0.624961    Uiso  ? O
   O132        1.000     0.435108     0.767886     0.874915    Uiso  ? O
   O133        1.000     0.767791     0.101698     0.124809    Uiso  ? O
   O134        1.000     0.767386     0.102016     0.375244    Uiso  ? O
   O135        1.000     0.767413     0.102003     0.624766    Uiso  ? O
   O136        1.000     0.767768     0.101738     0.875184    Uiso  ? O
   O137        1.000     0.767791     0.435226     0.125070    Uiso  ? O
   O138        1.000     0.767894     0.435155     0.375026    Uiso  ? O
   O139        1.000     0.767884     0.435150     0.624941    Uiso  ? O
   O140        1.000     0.767780     0.435221     0.874899    Uiso  ? O
   O141        1.000     0.767888     0.767972     0.125149    Uiso  ? O
   O142        1.000     0.768040     0.768058     0.374990    Uiso  ? O
   O143        1.000     0.767994     0.768079     0.625012    Uiso  ? O
   O144        1.000     0.767904     0.767932     0.874858    Uiso  ? O
   STE         1.000     0.166603     0.166765     0.000029    Uiso  ? Eu

loop_
   _atom_site_moment_label
   _atom_site_moment_crystalaxis_x
   _atom_site_moment_crystalaxis_y
   _atom_site_moment_crystalaxis_z
   Ti1            0.000000     0.000000     0.000000
   Ti2            0.000000     0.000000     0.000000
   Ti3            0.000000     0.000000     0.000000
   Ti4            0.000000     0.000000     0.000000
   Ti5            0.000000     0.000000     0.000000
   Ti6            0.000000     0.000000     0.000000
   Ti7            0.000000     0.000000     0.000000
   Ti8            0.000000     0.000000     0.000000
   Ti9            0.000000     0.000000     0.000000
   Ti10           0.000000     0.000000     0.000000
   Ti11           0.000000     0.000000     0.000000
   Ti12           0.000000     0.000000     0.000000
   Ti13           0.000000     0.000000     0.000000
   Ti14           0.000000     0.000000     0.000000
   Ti15           0.000000     0.000000     0.000000
   Ti16           0.000000     0.000000     0.000000
   Ti17           0.000000     0.000000     0.000000
   Ti18           0.000000     0.000000     0.000000
   Ti19           0.000000     0.000000     0.000000
   Ti20           0.000000     0.000000     0.000000
   Ti21           0.000000     0.000000     0.000000
   Ti22           0.000000     0.000000     0.000000
   Ti23           0.000000     0.000000     0.000000
   Ti24           0.000000     0.000000     0.000000
   Ti25           0.000000     0.000000     0.000000
   Ti26           0.000000     0.000000     0.000000
   Ti27           0.000000     0.000000     0.000000
   Ti28           0.000000     0.000000     0.000000
   Ti29           0.000000     0.000000     0.000000
   Ti30           0.000000     0.000000     0.000000
   Ti31           0.000000     0.000000     0.000000
   Ti32           0.000000     0.000000     0.000000
   Ti33           0.000000     0.000000     0.000000
   Ti34           0.000000     0.000000     0.000000
   Ti35           0.000000     0.000000     0.000000
   Ti36           0.000000     0.000000     0.000000
   Ti37           0.000000     0.000000     0.000000
   Ti38           0.000000     0.000000     0.000000
   Ti39           0.000000     0.000000     0.000000
   Ti40           0.000000     0.000000     0.000000
   Ti41           0.000000     0.000000     0.000000
   Ti42           0.000000     0.000000     0.000000
   Ti43           0.000000     0.000000     0.000000
   Ti44           0.000000     0.000000     0.000000
   Ti45           0.000000     0.000000     0.000000
   Ti46           0.000000     0.000000     0.000000
   Ti47           0.000000     0.000000     0.000000
   Ti48           0.000000     0.000000     0.000000
   Ti49           0.000000     0.000000     0.000000
   Ti50           0.000000     0.000000     0.000000
   Ti51           0.000000     0.000000     0.000000
   Ti52           0.000000     0.000000     0.000000
   Ti53           0.000000     0.000000     0.000000
   Ti54           0.000000     0.000000     0.000000
   Ti55           0.000000     0.000000     0.000000
   Ti56           0.000000     0.000000     0.000000
   Ti57           0.000000     0.000000     0.000000
   Ti58           0.000000     0.000000     0.000000
   Ti59           0.000000     0.000000     0.000000
   Ti60           0.000000     0.000000     0.000000
   Ti61           0.000000     0.000000     0.000000
   Ti62           0.000000     0.000000     0.000000
   Ti63           0.000000     0.000000     0.000000
   Ti64           0.000000     0.000000     0.000000
   Ti65           0.000000     0.000000     0.000000
   Ti66           0.000000     0.000000     0.000000
   Ti67           0.000000     0.000000     0.000000
   Ti68           0.000000     0.000000     0.000000
   Ti69           0.000000     0.000000     0.000000
   Ti70           0.000000     0.000000     0.000000
   Ti71           0.000000     0.000000     0.000000
   O1             0.316428     0.307146     0.716954
   O2             0.000000     0.000000     0.000000
   O3             0.000000     0.000000     0.000000
   O4             0.304652     0.316982    -0.716474
   O5             0.000000     0.000000     0.000000
   O6             0.000000     0.000000     0.000000
   O7             0.000000     0.000000     0.000000
   O8             0.000000     0.000000     0.000000
   O9             0.000000     0.000000     0.000000
   O10            0.000000     0.000000     0.000000
   O11            0.000000     0.000000     0.000000
   O12            0.000000     0.000000     0.000000
   O13            0.000000     0.000000     0.000000
   O14            0.000000     0.000000     0.000000
   O15            0.000000     0.000000     0.000000
   O16            0.000000     0.000000     0.000000
   O17            0.000000     0.000000     0.000000
   O18            0.000000     0.000000     0.000000
   O19            0.000000     0.000000     0.000000
   O20            0.000000     0.000000     0.000000
   O21            0.000000     0.000000     0.000000
   O22            0.000000     0.000000     0.000000
   O23            0.000000     0.000000     0.000000
   O24            0.000000     0.000000     0.000000
   O25            0.000000     0.000000     0.000000
   O26            0.000000     0.000000     0.000000
   O27            0.000000     0.000000     0.000000
   O28            0.000000     0.000000     0.000000
   O29            0.000000     0.000000     0.000000
   O30            0.000000     0.000000     0.000000
   O31            0.000000     0.000000     0.000000
   O32            0.000000     0.000000     0.000000
   O33            0.000000     0.000000     0.000000
   O34            0.000000     0.000000     0.000000
   O35            0.000000     0.000000     0.000000
   O36            0.000000     0.000000     0.000000
   O37            0.000000     0.000000     0.000000
   O38            0.000000     0.000000     0.000000
   O39            0.000000     0.000000     0.000000
   O40            0.000000     0.000000     0.000000
   O41            0.000000     0.000000     0.000000
   O42            0.000000     0.000000     0.000000
   O43            0.000000     0.000000     0.000000
   O44            0.000000     0.000000     0.000000
   O45            0.000000     0.000000     0.000000
   O46            0.000000     0.000000     0.000000
   O47            0.000000     0.000000     0.000000
   O48            0.000000     0.000000     0.000000
   O49            0.000000     0.000000     0.000000
   O50            0.000000     0.000000     0.000000
   O51            0.000000     0.000000     0.000000
   O52            0.000000     0.000000     0.000000
   O53            0.000000     0.000000     0.000000
   O54            0.000000     0.000000     0.000000
   O55            0.000000     0.000000     0.000000
   O56            0.000000     0.000000     0.000000
   O57            0.000000     0.000000     0.000000
   O58            0.000000     0.000000     0.000000
   O59            0.000000     0.000000     0.000000
   O60            0.000000     0.000000     0.000000
   O61            0.000000     0.000000     0.000000
   O62            0.000000     0.000000     0.000000
   O63            0.000000     0.000000     0.000000
   O64            0.000000     0.000000     0.000000
   O65            0.000000     0.000000     0.000000
   O66            0.000000     0.000000     0.000000
   O67            0.000000     0.000000     0.000000
   O68            0.000000     0.000000     0.000000
   O69            0.000000     0.000000     0.000000
   O70            0.000000     0.000000     0.000000
   O71            0.000000     0.000000     0.000000
   O72            0.000000     0.000000     0.000000
   O73            0.000000     0.000000     0.000000
   O74            0.000000     0.000000     0.000000
   O75            0.000000     0.000000     0.000000
   O76            0.000000     0.000000     0.000000
   O77            0.000000     0.000000     0.000000
   O78            0.000000     0.000000     0.000000
   O79            0.000000     0.000000     0.000000
   O80            0.000000     0.000000     0.000000
   O81            0.000000     0.000000     0.000000
   O82            0.000000     0.000000     0.000000
   O83            0.000000     0.000000     0.000000
   O84            0.000000     0.000000     0.000000
   O85            0.000000     0.000000     0.000000
   O86            0.000000     0.000000     0.000000
   O87            0.000000     0.000000     0.000000
   O88            0.000000     0.000000     0.000000
   O89            0.000000     0.000000     0.000000
   O90            0.000000     0.000000     0.000000
   O91            0.000000     0.000000     0.000000
   O92            0.000000     0.000000     0.000000
   O93            0.000000     0.000000     0.000000
   O94            0.000000     0.000000     0.000000
   O95            0.000000     0.000000     0.000000
   O96            0.000000     0.000000     0.000000
   O97            0.000000     0.000000     0.000000
   O98            0.000000     0.000000     0.000000
   O99            0.000000     0.000000     0.000000
   O100           0.000000     0.000000     0.000000
   O101           0.000000     0.000000     0.000000
   O102           0.000000     0.000000     0.000000
   O103           0.000000     0.000000     0.000000
   O104           0.000000     0.000000     0.000000
   O105           0.000000     0.000000     0.000000
   O106           0.000000     0.000000     0.000000
   O107           0.000000     0.000000     0.000000
   O108           0.000000     0.000000     0.000000
   O109          -0.310748    -0.313380     0.713714
   O110           0.000000     0.000000     0.000000
   O111           0.000000     0.000000     0.000000
   O112          -0.315458    -0.310055    -0.712034
   O113           0.000000     0.000000     0.000000
   O114           0.000000     0.000000     0.000000
   O115           0.000000     0.000000     0.000000
   O116           0.000000     0.000000     0.000000
   O117           0.000000     0.000000     0.000000
   O118           0.000000     0.000000     0.000000
   O119           0.000000     0.000000     0.000000
   O120           0.000000     0.000000     0.000000
   O121           0.000000     0.000000     0.000000
   O122           0.000000     0.000000     0.000000
   O123           0.000000     0.000000     0.000000
   O124           0.000000     0.000000     0.000000
   O125           0.000000     0.000000     0.000000
   O126           0.000000     0.000000     0.000000
   O127           0.000000     0.000000     0.000000
   O128           0.000000     0.000000     0.000000
   O129           0.000000     0.000000     0.000000
   O130           0.000000     0.000000     0.000000
   O131           0.000000     0.000000     0.000000
   O132           0.000000     0.000000     0.000000
   O133           0.000000     0.000000     0.000000
   O134           0.000000     0.000000     0.000000
   O135           0.000000     0.000000     0.000000
   O136           0.000000     0.000000     0.000000
   O137           0.000000     0.000000     0.000000
   O138           0.000000     0.000000     0.000000
   O139           0.000000     0.000000     0.000000
   O140           0.000000     0.000000     0.000000
   O141           0.000000     0.000000     0.000000
   O142           0.000000     0.000000     0.000000
   O143           0.000000     0.000000     0.000000
   O144           0.000000     0.000000     0.000000
   Eu1            0.000000     0.000000     0.000000
