#======================================================================
# CRYSTAL DATA (generated from VESTA)
#----------------------------------------------------------------------
data_VESTA_phase_1

_chemical_name_common                  'unknown system'
_cell_length_a                         10.970591
_cell_length_b                         15.269628
_cell_length_c                         10.705423
_cell_angle_alpha                      90.000000
_cell_angle_beta                       90.000000
_cell_angle_gamma                      90.000000
_space_group_name_H-M_alt              'P 1'
_space_group_IT_number                 1

loop_
_space_group_symop_operation_xyz
   'x, y, z'

loop_
   _atom_site_label
   _atom_site_occupancy
   _atom_site_fract_x
   _atom_site_fract_y
   _atom_site_fract_z
   _atom_site_adp_type
   _atom_site_U_iso_or_equiv
   _atom_site_type_symbol
   Ca1         1.000     0.269330     0.374072     0.001320    Uiso  ? Ca
   Ca2         1.000     0.274747     0.374441     0.506591    Uiso  ? Ca
   Ca3         1.000     0.274384     0.875018     0.005655    Uiso  ? Ca
   Ca4         1.000     0.273894     0.875509     0.505611    Uiso  ? Ca
   Ca5         1.000     0.775605     0.374173     0.005553    Uiso  ? Ca
   Ca6         1.000     0.774111     0.374329     0.504721    Uiso  ? Ca
   Ca7         1.000     0.774354     0.875249     0.005551    Uiso  ? Ca
   Ca8         1.000     0.774572     0.875118     0.505754    Uiso  ? Ca
   Ca9         1.000     0.225738     0.124889     0.494335    Uiso  ? Ca
   Ca10        1.000     0.225770     0.124516     0.993923    Uiso  ? Ca
   Ca11        1.000     0.225391     0.626318     0.497016    Uiso  ? Ca
   Ca12        1.000     0.225255     0.625170     0.992662    Uiso  ? Ca
   Ca13        1.000     0.726274     0.124635     0.494891    Uiso  ? Ca
   Ca14        1.000     0.725487     0.124821     0.993911    Uiso  ? Ca
   Ca15        1.000     0.725692     0.625466     0.494418    Uiso  ? Ca
   Ca16        1.000     0.727923     0.626448     0.995117    Uiso  ? Ca
   Ca17        1.000     0.021951     0.373252     0.243540    Uiso  ? Ca
   Ca18        1.000     0.024983     0.374062     0.744604    Uiso  ? Ca
   Ca19        1.000     0.024484     0.875311     0.243929    Uiso  ? Ca
   Ca20        1.000     0.024101     0.875447     0.744545    Uiso  ? Ca
   Ca21        1.000     0.530379     0.372449     0.247644    Uiso  ? Ca
   Ca22        1.000     0.524312     0.373929     0.742835    Uiso  ? Ca
   Ca23        1.000     0.524577     0.875471     0.244384    Uiso  ? Ca
   Ca24        1.000     0.524209     0.875392     0.744641    Uiso  ? Ca
   Ca25        1.000     0.476318     0.124403     0.256510    Uiso  ? Ca
   Ca26        1.000     0.476206     0.124959     0.755482    Uiso  ? Ca
   Ca27        1.000     0.478313     0.628010     0.259767    Uiso  ? Ca
   Ca28        1.000     0.474893     0.626955     0.752639    Uiso  ? Ca
   Ca29        1.000     0.976109     0.124626     0.255571    Uiso  ? Ca
   Ca30        1.000     0.975490     0.124677     0.755207    Uiso  ? Ca
   Ca31        1.000     0.972619     0.626592     0.255234    Uiso  ? Ca
   Ca32        1.000     0.976340     0.625510     0.756657    Uiso  ? Ca
   Ti1         1.000     0.250337     0.249852     0.249512    Uiso  ? Ti
   Ti2         1.000     0.250119     0.249414     0.749390    Uiso  ? Ti
   Ti3         1.000     0.250849     0.750102     0.250065    Uiso  ? Ti
   Ti4         1.000     0.249750     0.750516     0.750415    Uiso  ? Ti
   Ti5         1.000     0.750888     0.249131     0.249470    Uiso  ? Ti
   Ti6         1.000     0.749893     0.250179     0.749891    Uiso  ? Ti
   Ti7         1.000     0.750073     0.750654     0.250175    Uiso  ? Ti
   Ti8         1.000     0.750391     0.750007     0.750022    Uiso  ? Ti
   Ti9         1.000     0.250338     0.000139     0.249756    Uiso  ? Ti
   Ti10        1.000     0.250132     0.999995     0.749978    Uiso  ? Ti
   Ti11        1.000     0.240932     0.501161     0.256463    Uiso  ? Ti
   Ti12        1.000     0.250132     0.500176     0.749365    Uiso  ? Ti
   Ti13        1.000     0.750315     0.999989     0.249933    Uiso  ? Ti
   Ti14        1.000     0.749923     0.999897     0.750147    Uiso  ? Ti
   Ti15        1.000     0.749813     0.499988     0.249594    Uiso  ? Ti
   Ti16        1.000     0.751824     0.499810     0.748391    Uiso  ? Ti
   Ti17        1.000     0.000154     0.249435     0.999411    Uiso  ? Ti
   Ti18        1.000     0.000130     0.250060     0.499882    Uiso  ? Ti
   Ti19        1.000     0.000319     0.750133     0.000111    Uiso  ? Ti
   Ti20        1.000     0.000149     0.750033     0.499937    Uiso  ? Ti
   Ti21        1.000     0.499386     0.249867     0.000728    Uiso  ? Ti
   Ti22        1.000     0.499940     0.249573     0.499933    Uiso  ? Ti
   Ti23        1.000     0.499993     0.749672     0.000081    Uiso  ? Ti
   Ti24        1.000     0.500099     0.750742     0.500501    Uiso  ? Ti
   Ti25        1.000     0.000120     0.000007     0.999902    Uiso  ? Ti
   Ti26        1.000     0.000175     0.999970     0.499829    Uiso  ? Ti
   Ti27        1.000     0.999784     0.500000     0.000231    Uiso  ? Ti
   Ti28        1.000     0.998287     0.500140     0.501709    Uiso  ? Ti
   Ti29        1.000     0.499974     0.999920     0.000107    Uiso  ? Ti
   Ti30        1.000     0.500119     0.999923     0.500102    Uiso  ? Ti
   Ti31        1.000     0.505833     0.500707     0.991092    Uiso  ? Ti
   Ti32        1.000     0.499725     0.499777     0.499770    Uiso  ? Ti
   O1          1.000     0.237617     0.376267     0.293600    Uiso  ? O
   O2          1.000     0.236751     0.375000     0.791988    Uiso  ? O
   O3          1.000     0.237065     0.874350     0.293726    Uiso  ? O
   O4          1.000     0.236805     0.875007     0.794223    Uiso  ? O
   O5          1.000     0.738075     0.374723     0.293438    Uiso  ? O
   O6          1.000     0.735752     0.375492     0.794446    Uiso  ? O
   O7          1.000     0.737136     0.875111     0.293960    Uiso  ? O
   O8          1.000     0.736392     0.874836     0.794462    Uiso  ? O
   O9          1.000     0.264548     0.125435     0.205139    Uiso  ? O
   O10         1.000     0.263841     0.124930     0.705805    Uiso  ? O
   O11         1.000     0.268663     0.621933     0.202586    Uiso  ? O
   O12         1.000     0.263046     0.625197     0.706784    Uiso  ? O
   O13         1.000     0.763241     0.124883     0.205345    Uiso  ? O
   O14         1.000     0.762479     0.125187     0.706539    Uiso  ? O
   O15         1.000     0.761632     0.624958     0.206581    Uiso  ? O
   O16         1.000     0.764532     0.624896     0.705241    Uiso  ? O
   O17         1.000     0.487163     0.374874     0.455945    Uiso  ? O
   O18         1.000     0.484462     0.376496     0.957534    Uiso  ? O
   O19         1.000     0.486652     0.875031     0.455636    Uiso  ? O
   O20         1.000     0.487531     0.874547     0.956190    Uiso  ? O
   O21         1.000     0.987685     0.375453     0.455435    Uiso  ? O
   O22         1.000     0.988509     0.374866     0.955952    Uiso  ? O
   O23         1.000     0.988089     0.874804     0.455221    Uiso  ? O
   O24         1.000     0.987880     0.874877     0.956298    Uiso  ? O
   O25         1.000     0.013041     0.124908     0.044150    Uiso  ? O
   O26         1.000     0.012728     0.125132     0.543712    Uiso  ? O
   O27         1.000     0.012147     0.624917     0.044166    Uiso  ? O
   O28         1.000     0.011758     0.624976     0.545220    Uiso  ? O
   O29         1.000     0.511816     0.125531     0.044760    Uiso  ? O
   O30         1.000     0.513082     0.125007     0.543795    Uiso  ? O
   O31         1.000     0.511786     0.622960     0.046600    Uiso  ? O
   O32         1.000     0.512684     0.624973     0.542074    Uiso  ? O
   O33         1.000     0.397403     0.476910     0.647794    Uiso  ? O
   O34         1.000     0.397018     0.976552     0.147688    Uiso  ? O
   O35         1.000     0.396940     0.976672     0.647572    Uiso  ? O
   O36         1.000     0.896246     0.476737     0.147569    Uiso  ? O
   O37         1.000     0.897569     0.475713     0.648353    Uiso  ? O
   O38         1.000     0.897110     0.976718     0.147608    Uiso  ? O
   O39         1.000     0.896779     0.976894     0.647405    Uiso  ? O
   O40         1.000     0.103205     0.227575     0.351549    Uiso  ? O
   O41         1.000     0.103034     0.226834     0.851781    Uiso  ? O
   O42         1.000     0.104537     0.725085     0.352056    Uiso  ? O
   O43         1.000     0.103371     0.726787     0.852562    Uiso  ? O
   O44         1.000     0.602703     0.227840     0.351359    Uiso  ? O
   O45         1.000     0.601991     0.228091     0.852558    Uiso  ? O
   O46         1.000     0.603949     0.727928     0.353294    Uiso  ? O
   O47         1.000     0.603687     0.725435     0.853498    Uiso  ? O
   O48         1.000     0.103693     0.023326     0.352114    Uiso  ? O
   O49         1.000     0.103139     0.023302     0.852184    Uiso  ? O
   O50         1.000     0.099664     0.525817     0.352639    Uiso  ? O
   O51         1.000     0.103858     0.523011     0.853020    Uiso  ? O
   O52         1.000     0.603413     0.023114     0.352487    Uiso  ? O
   O53         1.000     0.603000     0.023472     0.852707    Uiso  ? O
   O54         1.000     0.601425     0.521799     0.350462    Uiso  ? O
   O55         1.000     0.603210     0.524948     0.848789    Uiso  ? O
   O56         1.000     0.396796     0.276508     0.148020    Uiso  ? O
   O57         1.000     0.396997     0.272997     0.647440    Uiso  ? O
   O58         1.000     0.397821     0.772678     0.148401    Uiso  ? O
   O59         1.000     0.397285     0.772808     0.648136    Uiso  ? O
   O60         1.000     0.896791     0.272788     0.146921    Uiso  ? O
   O61         1.000     0.896604     0.273487     0.647342    Uiso  ? O
   O62         1.000     0.897308     0.772787     0.147968    Uiso  ? O
   O63         1.000     0.896977     0.773770     0.647344    Uiso  ? O
   O64         1.000     0.145629     0.476351     0.104056    Uiso  ? O
   O65         1.000     0.147074     0.477604     0.601331    Uiso  ? O
   O66         1.000     0.147257     0.976909     0.102364    Uiso  ? O
   O67         1.000     0.146913     0.976992     0.602357    Uiso  ? O
   O68         1.000     0.646153     0.475926     0.100862    Uiso  ? O
   O69         1.000     0.647503     0.477056     0.601398    Uiso  ? O
   O70         1.000     0.646869     0.977025     0.102290    Uiso  ? O
   O71         1.000     0.646878     0.976765     0.602439    Uiso  ? O
   O72         1.000     0.352922     0.227010     0.397445    Uiso  ? O
   O73         1.000     0.352360     0.227661     0.898279    Uiso  ? O
   O74         1.000     0.353578     0.726269     0.397208    Uiso  ? O
   O75         1.000     0.353475     0.726866     0.897903    Uiso  ? O
   O76         1.000     0.853196     0.226825     0.397411    Uiso  ? O
   O77         1.000     0.852760     0.227184     0.897636    Uiso  ? O
   O78         1.000     0.853683     0.726776     0.397318    Uiso  ? O
   O79         1.000     0.853743     0.727077     0.897456    Uiso  ? O
   O80         1.000     0.353172     0.023122     0.397489    Uiso  ? O
   O81         1.000     0.353273     0.022902     0.897715    Uiso  ? O
   O82         1.000     0.350883     0.522801     0.398316    Uiso  ? O
   O83         1.000     0.353909     0.523356     0.897552    Uiso  ? O
   O84         1.000     0.853400     0.023126     0.397464    Uiso  ? O
   O85         1.000     0.853118     0.022906     0.897692    Uiso  ? O
   O86         1.000     0.851794     0.522925     0.398371    Uiso  ? O
   O87         1.000     0.852732     0.523008     0.897530    Uiso  ? O
   O88         1.000     0.146834     0.272952     0.102277    Uiso  ? O
   O89         1.000     0.146974     0.272777     0.601909    Uiso  ? O
   O90         1.000     0.148042     0.771868     0.102440    Uiso  ? O
   O91         1.000     0.147431     0.772757     0.601989    Uiso  ? O
   O92         1.000     0.646531     0.273445     0.102384    Uiso  ? O
   O93         1.000     0.646720     0.273207     0.602243    Uiso  ? O
   O94         1.000     0.647164     0.772446     0.102151    Uiso  ? O
   O95         1.000     0.646733     0.773025     0.602954    Uiso  ? O
   STH         1.000     0.393823     0.479113     0.146015    Uiso  ? Ho

loop_
   _atom_site_moment_label
   _atom_site_moment_crystalaxis_x
   _atom_site_moment_crystalaxis_y
   _atom_site_moment_crystalaxis_z
   Ca1           -0.552260    -0.145825    -0.435175
   Ca2            0.000000     0.000000     0.000000
   Ca3            0.000000     0.000000     0.000000
   Ca4            0.000000     0.000000     0.000000
   Ca5            0.000000     0.000000     0.000000
   Ca6            0.000000     0.000000     0.000000
   Ca7            0.000000     0.000000     0.000000
   Ca8            0.000000     0.000000     0.000000
   Ca9            0.000000     0.000000     0.000000
   Ca10           0.000000     0.000000     0.000000
   Ca11           0.000000     0.000000     0.000000
   Ca12           0.000000     0.000000     0.000000
   Ca13           0.000000     0.000000     0.000000
   Ca14           0.000000     0.000000     0.000000
   Ca15           0.000000     0.000000     0.000000
   Ca16           0.000000     0.000000     0.000000
   Ca17           0.000000     0.000000     0.000000
   Ca18           0.000000     0.000000     0.000000
   Ca19           0.000000     0.000000     0.000000
   Ca20           0.000000     0.000000     0.000000
   Ca21           0.652421    -0.396552     0.347605
   Ca22           0.000000     0.000000     0.000000
   Ca23           0.000000     0.000000     0.000000
   Ca24           0.000000     0.000000     0.000000
   Ca25           0.000000     0.000000     0.000000
   Ca26           0.000000     0.000000     0.000000
   Ca27           0.298949     0.453508     0.443954
   Ca28           0.000000     0.000000     0.000000
   Ca29           0.000000     0.000000     0.000000
   Ca30           0.000000     0.000000     0.000000
   Ca31           0.000000     0.000000     0.000000
   Ca32           0.000000     0.000000     0.000000
   Ti1            0.000000     0.000000     0.000000
   Ti2            0.000000     0.000000     0.000000
   Ti3            0.000000     0.000000     0.000000
   Ti4            0.000000     0.000000     0.000000
   Ti5            0.000000     0.000000     0.000000
   Ti6            0.000000     0.000000     0.000000
   Ti7            0.000000     0.000000     0.000000
   Ti8            0.000000     0.000000     0.000000
   Ti9            0.000000     0.000000     0.000000
   Ti10           0.000000     0.000000     0.000000
   Ti11          -0.979235     0.175295     0.699492
   Ti12           0.000000     0.000000     0.000000
   Ti13           0.000000     0.000000     0.000000
   Ti14           0.000000     0.000000     0.000000
   Ti15           0.000000     0.000000     0.000000
   Ti16           0.000000     0.000000     0.000000
   Ti17           0.000000     0.000000     0.000000
   Ti18           0.000000     0.000000     0.000000
   Ti19           0.000000     0.000000     0.000000
   Ti20           0.000000     0.000000     0.000000
   Ti21           0.000000     0.000000     0.000000
   Ti22           0.000000     0.000000     0.000000
   Ti23           0.000000     0.000000     0.000000
   Ti24           0.000000     0.000000     0.000000
   Ti25           0.000000     0.000000     0.000000
   Ti26           0.000000     0.000000     0.000000
   Ti27           0.000000     0.000000     0.000000
   Ti28           0.000000     0.000000     0.000000
   Ti29           0.000000     0.000000     0.000000
   Ti30           0.000000     0.000000     0.000000
   Ti31           0.642547     0.104750    -0.939080
   Ti32           0.000000     0.000000     0.000000
   O1             0.000000     0.000000     0.000000
   O2             0.000000     0.000000     0.000000
   O3             0.000000     0.000000     0.000000
   O4             0.000000     0.000000     0.000000
   O5             0.000000     0.000000     0.000000
   O6             0.000000     0.000000     0.000000
   O7             0.000000     0.000000     0.000000
   O8             0.000000     0.000000     0.000000
   O9             0.000000     0.000000     0.000000
   O10            0.000000     0.000000     0.000000
   O11            0.583306    -0.477939    -0.347070
   O12            0.000000     0.000000     0.000000
   O13            0.000000     0.000000     0.000000
   O14            0.000000     0.000000     0.000000
   O15            0.000000     0.000000     0.000000
   O16            0.000000     0.000000     0.000000
   O17            0.000000     0.000000     0.000000
   O18            0.000000     0.000000     0.000000
   O19            0.000000     0.000000     0.000000
   O20            0.000000     0.000000     0.000000
   O21            0.000000     0.000000     0.000000
   O22            0.000000     0.000000     0.000000
   O23            0.000000     0.000000     0.000000
   O24            0.000000     0.000000     0.000000
   O25            0.000000     0.000000     0.000000
   O26            0.000000     0.000000     0.000000
   O27            0.000000     0.000000     0.000000
   O28            0.000000     0.000000     0.000000
   O29            0.000000     0.000000     0.000000
   O30            0.000000     0.000000     0.000000
   O31            0.000000     0.000000     0.000000
   O32            0.000000     0.000000     0.000000
   O33            0.000000     0.000000     0.000000
   O34            0.000000     0.000000     0.000000
   O35            0.000000     0.000000     0.000000
   O36            0.000000     0.000000     0.000000
   O37            0.000000     0.000000     0.000000
   O38            0.000000     0.000000     0.000000
   O39            0.000000     0.000000     0.000000
   O40            0.000000     0.000000     0.000000
   O41            0.000000     0.000000     0.000000
   O42            0.000000     0.000000     0.000000
   O43            0.000000     0.000000     0.000000
   O44            0.000000     0.000000     0.000000
   O45            0.000000     0.000000     0.000000
   O46            0.000000     0.000000     0.000000
   O47            0.000000     0.000000     0.000000
   O48            0.000000     0.000000     0.000000
   O49            0.000000     0.000000     0.000000
   O50           -0.362249     0.357615     0.056096
   O51            0.000000     0.000000     0.000000
   O52            0.000000     0.000000     0.000000
   O53            0.000000     0.000000     0.000000
   O54            0.000000     0.000000     0.000000
   O55            0.000000     0.000000     0.000000
   O56            0.000000     0.000000     0.000000
   O57            0.000000     0.000000     0.000000
   O58            0.000000     0.000000     0.000000
   O59            0.000000     0.000000     0.000000
   O60            0.000000     0.000000     0.000000
   O61            0.000000     0.000000     0.000000
   O62            0.000000     0.000000     0.000000
   O63            0.000000     0.000000     0.000000
   O64            0.000000     0.000000     0.000000
   O65            0.000000     0.000000     0.000000
   O66            0.000000     0.000000     0.000000
   O67            0.000000     0.000000     0.000000
   O68            0.000000     0.000000     0.000000
   O69            0.000000     0.000000     0.000000
   O70            0.000000     0.000000     0.000000
   O71            0.000000     0.000000     0.000000
   O72            0.000000     0.000000     0.000000
   O73            0.000000     0.000000     0.000000
   O74            0.000000     0.000000     0.000000
   O75            0.000000     0.000000     0.000000
   O76            0.000000     0.000000     0.000000
   O77            0.000000     0.000000     0.000000
   O78            0.000000     0.000000     0.000000
   O79            0.000000     0.000000     0.000000
   O80            0.000000     0.000000     0.000000
   O81            0.000000     0.000000     0.000000
   O82            0.000000     0.000000     0.000000
   O83            0.000000     0.000000     0.000000
   O84            0.000000     0.000000     0.000000
   O85            0.000000     0.000000     0.000000
   O86            0.000000     0.000000     0.000000
   O87            0.000000     0.000000     0.000000
   O88            0.000000     0.000000     0.000000
   O89            0.000000     0.000000     0.000000
   O90            0.000000     0.000000     0.000000
   O91            0.000000     0.000000     0.000000
   O92            0.000000     0.000000     0.000000
   O93            0.000000     0.000000     0.000000
   O94            0.000000     0.000000     0.000000
   O95            0.000000     0.000000     0.000000
   Ho1            0.000000     0.000000     0.000000
