#======================================================================
# CRYSTAL DATA (generated from VESTA)
#----------------------------------------------------------------------
data_VESTA_phase_1

_chemical_name_common                  'unknown system'
_cell_length_a                         10.970591
_cell_length_b                         15.269628
_cell_length_c                         10.705423
_cell_angle_alpha                      90.000000
_cell_angle_beta                       90.000000
_cell_angle_gamma                      90.000000
_space_group_name_H-M_alt              'P 1'
_space_group_IT_number                 1

loop_
_space_group_symop_operation_xyz
   'x, y, z'

loop_
   _atom_site_label
   _atom_site_occupancy
   _atom_site_fract_x
   _atom_site_fract_y
   _atom_site_fract_z
   _atom_site_adp_type
   _atom_site_U_iso_or_equiv
   _atom_site_type_symbol
   Ca1         1.000     0.273227     0.375070     0.004579    Uiso  ? Ca
   Ca2         1.000     0.277323     0.375031     0.515289    Uiso  ? Ca
   Ca3         1.000     0.274446     0.875070     0.004630    Uiso  ? Ca
   Ca4         1.000     0.274571     0.875024     0.507280    Uiso  ? Ca
   Ca5         1.000     0.773837     0.375057     0.005313    Uiso  ? Ca
   Ca6         1.000     0.773886     0.375072     0.505808    Uiso  ? Ca
   Ca7         1.000     0.773867     0.875052     0.005361    Uiso  ? Ca
   Ca8         1.000     0.774286     0.875045     0.505749    Uiso  ? Ca
   Ca9         1.000     0.226782     0.124024     0.497039    Uiso  ? Ca
   Ca10        1.000     0.224930     0.123417     0.990640    Uiso  ? Ca
   Ca11        1.000     0.226695     0.626104     0.497059    Uiso  ? Ca
   Ca12        1.000     0.224839     0.626609     0.990534    Uiso  ? Ca
   Ca13        1.000     0.726014     0.124754     0.494812    Uiso  ? Ca
   Ca14        1.000     0.725417     0.124851     0.994359    Uiso  ? Ca
   Ca15        1.000     0.725904     0.625337     0.494817    Uiso  ? Ca
   Ca16        1.000     0.725372     0.625307     0.994365    Uiso  ? Ca
   Ca17        1.000     0.018370     0.375066     0.241091    Uiso  ? Ca
   Ca18        1.000     0.023883     0.375035     0.745833    Uiso  ? Ca
   Ca19        1.000     0.023141     0.875042     0.243934    Uiso  ? Ca
   Ca20        1.000     0.023545     0.875046     0.744444    Uiso  ? Ca
   Ca21        1.000     0.528203     0.375044     0.243984    Uiso  ? Ca
   Ca22        1.000     0.524365     0.375001     0.744796    Uiso  ? Ca
   Ca23        1.000     0.525214     0.875070     0.244571    Uiso  ? Ca
   Ca24        1.000     0.524436     0.875045     0.744634    Uiso  ? Ca
   Ca25        1.000     0.478133     0.123273     0.256693    Uiso  ? Ca
   Ca26        1.000     0.476450     0.124775     0.755547    Uiso  ? Ca
   Ca27        1.000     0.478050     0.626802     0.256666    Uiso  ? Ca
   Ca28        1.000     0.476393     0.625328     0.755583    Uiso  ? Ca
   Ca29        1.000     0.974511     0.124869     0.256232    Uiso  ? Ca
   Ca30        1.000     0.975638     0.124613     0.754916    Uiso  ? Ca
   Ca31        1.000     0.974454     0.625268     0.256102    Uiso  ? Ca
   Ca32        1.000     0.975559     0.625487     0.755041    Uiso  ? Ca
   Ti1         1.000     0.250116     0.242912     0.247289    Uiso  ? Ti
   Ti2         1.000     0.249975     0.249675     0.750799    Uiso  ? Ti
   Ti3         1.000     0.250069     0.751761     0.250312    Uiso  ? Ti
   Ti4         1.000     0.250059     0.750398     0.750039    Uiso  ? Ti
   Ti5         1.000     0.750073     0.249684     0.250156    Uiso  ? Ti
   Ti6         1.000     0.749680     0.250041     0.750014    Uiso  ? Ti
   Ti7         1.000     0.750214     0.750238     0.250067    Uiso  ? Ti
   Ti8         1.000     0.750051     0.749991     0.750182    Uiso  ? Ti
   Ti9         1.000     0.250145     0.998313     0.250307    Uiso  ? Ti
   Ti10        1.000     0.250151     0.999693     0.750050    Uiso  ? Ti
   Ti11        1.000     0.249989     0.507293     0.247279    Uiso  ? Ti
   Ti12        1.000     0.249875     0.500362     0.750768    Uiso  ? Ti
   Ti13        1.000     0.750284     0.999900     0.249993    Uiso  ? Ti
   Ti14        1.000     0.750076     0.000070     0.750212    Uiso  ? Ti
   Ti15        1.000     0.749997     0.500422     0.250256    Uiso  ? Ti
   Ti16        1.000     0.749591     0.500048     0.750055    Uiso  ? Ti
   Ti17        1.000     0.999813     0.249499     0.999882    Uiso  ? Ti
   Ti18        1.000     0.999802     0.250582     0.500831    Uiso  ? Ti
   Ti19        1.000     0.999892     0.750267     0.000222    Uiso  ? Ti
   Ti20        1.000     0.000199     0.750013     0.499592    Uiso  ? Ti
   Ti21        1.000     0.499699     0.250213     0.000350    Uiso  ? Ti
   Ti22        1.000     0.499863     0.249681     0.499293    Uiso  ? Ti
   Ti23        1.000     0.499977     0.750197     0.000313    Uiso  ? Ti
   Ti24        1.000     0.500124     0.750316     0.500249    Uiso  ? Ti
   Ti25        1.000     0.999925     0.999852     0.000224    Uiso  ? Ti
   Ti26        1.000     0.000266     0.000057     0.499517    Uiso  ? Ti
   Ti27        1.000     0.999817     0.500517     0.999849    Uiso  ? Ti
   Ti28        1.000     0.999761     0.499582     0.500890    Uiso  ? Ti
   Ti29        1.000     0.500054     0.999909     0.000276    Uiso  ? Ti
   Ti30        1.000     0.500163     0.999788     0.500199    Uiso  ? Ti
   Ti31        1.000     0.499633     0.499835     0.000385    Uiso  ? Ti
   Ti32        1.000     0.499776     0.500399     0.499300    Uiso  ? Ti
   O1          1.000     0.236826     0.375022     0.792872    Uiso  ? O
   O2          1.000     0.235600     0.875078     0.296432    Uiso  ? O
   O3          1.000     0.236237     0.875041     0.793438    Uiso  ? O
   O4          1.000     0.739216     0.375063     0.294022    Uiso  ? O
   O5          1.000     0.736626     0.375020     0.793987    Uiso  ? O
   O6          1.000     0.737567     0.875043     0.294036    Uiso  ? O
   O7          1.000     0.737134     0.875062     0.793900    Uiso  ? O
   O8          1.000     0.264715     0.123354     0.201579    Uiso  ? O
   O9          1.000     0.263792     0.125017     0.707500    Uiso  ? O
   O10         1.000     0.264630     0.626751     0.201489    Uiso  ? O
   O11         1.000     0.263726     0.625026     0.707543    Uiso  ? O
   O12         1.000     0.762643     0.125037     0.205932    Uiso  ? O
   O13         1.000     0.763068     0.125303     0.706109    Uiso  ? O
   O14         1.000     0.762531     0.625048     0.205962    Uiso  ? O
   O15         1.000     0.763031     0.624791     0.706103    Uiso  ? O
   O16         1.000     0.485503     0.375034     0.454489    Uiso  ? O
   O17         1.000     0.486653     0.375041     0.956307    Uiso  ? O
   O18         1.000     0.486999     0.875040     0.455741    Uiso  ? O
   O19         1.000     0.487876     0.875043     0.955758    Uiso  ? O
   O20         1.000     0.987590     0.375066     0.454459    Uiso  ? O
   O21         1.000     0.988114     0.375025     0.957261    Uiso  ? O
   O22         1.000     0.987837     0.875045     0.455657    Uiso  ? O
   O23         1.000     0.986915     0.875061     0.955732    Uiso  ? O
   O24         1.000     0.013418     0.125007     0.045124    Uiso  ? O
   O25         1.000     0.013581     0.125635     0.542753    Uiso  ? O
   O26         1.000     0.013391     0.625045     0.045008    Uiso  ? O
   O27         1.000     0.013558     0.624436     0.542845    Uiso  ? O
   O28         1.000     0.511623     0.125507     0.044982    Uiso  ? O
   O29         1.000     0.512581     0.125019     0.544073    Uiso  ? O
   O30         1.000     0.511537     0.624568     0.044965    Uiso  ? O
   O31         1.000     0.512467     0.625054     0.544113    Uiso  ? O
   O32         1.000     0.394651     0.474129     0.150160    Uiso  ? O
   O33         1.000     0.396349     0.476459     0.647210    Uiso  ? O
   O34         1.000     0.396966     0.975889     0.148056    Uiso  ? O
   O35         1.000     0.396840     0.976712     0.647565    Uiso  ? O
   O36         1.000     0.896179     0.477212     0.147082    Uiso  ? O
   O37         1.000     0.896881     0.476372     0.647458    Uiso  ? O
   O38         1.000     0.896970     0.976972     0.147732    Uiso  ? O
   O39         1.000     0.897260     0.977355     0.647450    Uiso  ? O
   O40         1.000     0.104461     0.230286     0.350643    Uiso  ? O
   O41         1.000     0.102992     0.226548     0.852594    Uiso  ? O
   O42         1.000     0.103704     0.725710     0.351843    Uiso  ? O
   O43         1.000     0.103322     0.726670     0.852665    Uiso  ? O
   O44         1.000     0.603355     0.226985     0.352396    Uiso  ? O
   O45         1.000     0.602603     0.227113     0.853049    Uiso  ? O
   O46         1.000     0.603632     0.727248     0.352915    Uiso  ? O
   O47         1.000     0.603285     0.726485     0.852886    Uiso  ? O
   O48         1.000     0.103776     0.024365     0.351879    Uiso  ? O
   O49         1.000     0.103365     0.023436     0.852634    Uiso  ? O
   O50         1.000     0.104435     0.519873     0.350678    Uiso  ? O
   O51         1.000     0.102893     0.523431     0.852562    Uiso  ? O
   O52         1.000     0.603711     0.022840     0.352900    Uiso  ? O
   O53         1.000     0.603384     0.023612     0.852863    Uiso  ? O
   O54         1.000     0.603271     0.523109     0.352379    Uiso  ? O
   O55         1.000     0.602530     0.522989     0.853075    Uiso  ? O
   O56         1.000     0.394771     0.275952     0.150164    Uiso  ? O
   O57         1.000     0.396423     0.273510     0.647212    Uiso  ? O
   O58         1.000     0.396907     0.774228     0.148063    Uiso  ? O
   O59         1.000     0.396802     0.773335     0.647572    Uiso  ? O
   O60         1.000     0.896216     0.272853     0.147060    Uiso  ? O
   O61         1.000     0.896919     0.273700     0.647403    Uiso  ? O
   O62         1.000     0.896922     0.773050     0.147787    Uiso  ? O
   O63         1.000     0.897226     0.772738     0.647471    Uiso  ? O
   O64         1.000     0.146655     0.476166     0.103984    Uiso  ? O
   O65         1.000     0.146953     0.477177     0.602618    Uiso  ? O
   O66         1.000     0.146948     0.976040     0.102652    Uiso  ? O
   O67         1.000     0.147255     0.977564     0.602041    Uiso  ? O
   O68         1.000     0.645836     0.476496     0.103113    Uiso  ? O
   O69         1.000     0.646375     0.476983     0.602260    Uiso  ? O
   O70         1.000     0.646928     0.977189     0.102475    Uiso  ? O
   O71         1.000     0.647027     0.977017     0.602558    Uiso  ? O
   O72         1.000     0.353152     0.224542     0.396159    Uiso  ? O
   O73         1.000     0.352458     0.227376     0.898868    Uiso  ? O
   O74         1.000     0.353247     0.726703     0.397059    Uiso  ? O
   O75         1.000     0.353301     0.727644     0.897646    Uiso  ? O
   O76         1.000     0.853855     0.226635     0.397470    Uiso  ? O
   O77         1.000     0.853064     0.227043     0.897623    Uiso  ? O
   O78         1.000     0.853495     0.726740     0.397513    Uiso  ? O
   O79         1.000     0.853234     0.726865     0.897764    Uiso  ? O
   O80         1.000     0.353336     0.023414     0.397043    Uiso  ? O
   O81         1.000     0.353353     0.022410     0.897614    Uiso  ? O
   O82         1.000     0.353058     0.525555     0.396160    Uiso  ? O
   O83         1.000     0.352385     0.522628     0.898881    Uiso  ? O
   O84         1.000     0.853627     0.023341     0.397468    Uiso  ? O
   O85         1.000     0.853272     0.023285     0.897724    Uiso  ? O
   O86         1.000     0.853795     0.523438     0.397494    Uiso  ? O
   O87         1.000     0.853030     0.523031     0.897659    Uiso  ? O
   O88         1.000     0.146680     0.273910     0.103959    Uiso  ? O
   O89         1.000     0.147014     0.272903     0.602586    Uiso  ? O
   O90         1.000     0.146848     0.774151     0.102722    Uiso  ? O
   O91         1.000     0.147232     0.772488     0.602050    Uiso  ? O
   O92         1.000     0.645866     0.273593     0.103102    Uiso  ? O
   O93         1.000     0.646440     0.273104     0.602307    Uiso  ? O
   O94         1.000     0.646850     0.772904     0.102516    Uiso  ? O
   O95         1.000     0.646954     0.773056     0.602545    Uiso  ? O
   STH         1.000     0.244747     0.375108     0.297436    Uiso  ? Ho

loop_
   _atom_site_moment_label
   _atom_site_moment_crystalaxis_x
   _atom_site_moment_crystalaxis_y
   _atom_site_moment_crystalaxis_z
   Ca1            0.000000     0.000000     0.000000
   Ca2            0.354460    -0.000611     1.005560
   Ca3            0.000000     0.000000     0.000000
   Ca4            0.000000     0.000000     0.000000
   Ca5            0.000000     0.000000     0.000000
   Ca6            0.000000     0.000000     0.000000
   Ca7            0.000000     0.000000     0.000000
   Ca8            0.000000     0.000000     0.000000
   Ca9            0.000000     0.000000     0.000000
   Ca10           0.000000     0.000000     0.000000
   Ca11           0.000000     0.000000     0.000000
   Ca12           0.000000     0.000000     0.000000
   Ca13           0.000000     0.000000     0.000000
   Ca14           0.000000     0.000000     0.000000
   Ca15           0.000000     0.000000     0.000000
   Ca16           0.000000     0.000000     0.000000
   Ca17          -0.740844     0.003207    -0.334437
   Ca18           0.000000     0.000000     0.000000
   Ca19           0.000000     0.000000     0.000000
   Ca20           0.000000     0.000000     0.000000
   Ca21           0.000000     0.000000     0.000000
   Ca22           0.000000     0.000000     0.000000
   Ca23           0.000000     0.000000     0.000000
   Ca24           0.000000     0.000000     0.000000
   Ca25           0.000000     0.000000     0.000000
   Ca26           0.000000     0.000000     0.000000
   Ca27           0.000000     0.000000     0.000000
   Ca28           0.000000     0.000000     0.000000
   Ca29           0.000000     0.000000     0.000000
   Ca30           0.000000     0.000000     0.000000
   Ca31           0.000000     0.000000     0.000000
   Ca32           0.000000     0.000000     0.000000
   Ti1           -0.021612    -1.080173    -0.296861
   Ti2            0.000000     0.000000     0.000000
   Ti3            0.000000     0.000000     0.000000
   Ti4            0.000000     0.000000     0.000000
   Ti5            0.000000     0.000000     0.000000
   Ti6            0.000000     0.000000     0.000000
   Ti7            0.000000     0.000000     0.000000
   Ti8            0.000000     0.000000     0.000000
   Ti9            0.000000     0.000000     0.000000
   Ti10           0.000000     0.000000     0.000000
   Ti11          -0.031924     1.100940    -0.301358
   Ti12           0.000000     0.000000     0.000000
   Ti13           0.000000     0.000000     0.000000
   Ti14           0.000000     0.000000     0.000000
   Ti15           0.000000     0.000000     0.000000
   Ti16           0.000000     0.000000     0.000000
   Ti17           0.000000     0.000000     0.000000
   Ti18           0.000000     0.000000     0.000000
   Ti19           0.000000     0.000000     0.000000
   Ti20           0.000000     0.000000     0.000000
   Ti21           0.000000     0.000000     0.000000
   Ti22           0.000000     0.000000     0.000000
   Ti23           0.000000     0.000000     0.000000
   Ti24           0.000000     0.000000     0.000000
   Ti25           0.000000     0.000000     0.000000
   Ti26           0.000000     0.000000     0.000000
   Ti27           0.000000     0.000000     0.000000
   Ti28           0.000000     0.000000     0.000000
   Ti29           0.000000     0.000000     0.000000
   Ti30           0.000000     0.000000     0.000000
   Ti31           0.000000     0.000000     0.000000
   Ti32           0.000000     0.000000     0.000000
   O1             0.000000     0.000000     0.000000
   O2             0.000000     0.000000     0.000000
   O3             0.000000     0.000000     0.000000
   O4             0.000000     0.000000     0.000000
   O5             0.000000     0.000000     0.000000
   O6             0.000000     0.000000     0.000000
   O7             0.000000     0.000000     0.000000
   O8             0.000000     0.000000     0.000000
   O9             0.000000     0.000000     0.000000
   O10            0.000000     0.000000     0.000000
   O11            0.000000     0.000000     0.000000
   O12            0.000000     0.000000     0.000000
   O13            0.000000     0.000000     0.000000
   O14            0.000000     0.000000     0.000000
   O15            0.000000     0.000000     0.000000
   O16            0.000000     0.000000     0.000000
   O17            0.000000     0.000000     0.000000
   O18            0.000000     0.000000     0.000000
   O19            0.000000     0.000000     0.000000
   O20            0.000000     0.000000     0.000000
   O21            0.000000     0.000000     0.000000
   O22            0.000000     0.000000     0.000000
   O23            0.000000     0.000000     0.000000
   O24            0.000000     0.000000     0.000000
   O25            0.000000     0.000000     0.000000
   O26            0.000000     0.000000     0.000000
   O27            0.000000     0.000000     0.000000
   O28            0.000000     0.000000     0.000000
   O29            0.000000     0.000000     0.000000
   O30            0.000000     0.000000     0.000000
   O31            0.000000     0.000000     0.000000
   O32           -0.259784    -0.383420     0.246974
   O33            0.000000     0.000000     0.000000
   O34            0.000000     0.000000     0.000000
   O35            0.000000     0.000000     0.000000
   O36            0.000000     0.000000     0.000000
   O37            0.000000     0.000000     0.000000
   O38            0.000000     0.000000     0.000000
   O39            0.000000     0.000000     0.000000
   O40            0.114204     0.537491    -0.189593
   O41            0.000000     0.000000     0.000000
   O42            0.000000     0.000000     0.000000
   O43            0.000000     0.000000     0.000000
   O44            0.000000     0.000000     0.000000
   O45            0.000000     0.000000     0.000000
   O46            0.000000     0.000000     0.000000
   O47            0.000000     0.000000     0.000000
   O48            0.000000     0.000000     0.000000
   O49            0.000000     0.000000     0.000000
   O50            0.114423    -0.531078    -0.185739
   O51            0.000000     0.000000     0.000000
   O52            0.000000     0.000000     0.000000
   O53            0.000000     0.000000     0.000000
   O54            0.000000     0.000000     0.000000
   O55            0.000000     0.000000     0.000000
   O56           -0.249691     0.379756     0.248580
   O57            0.000000     0.000000     0.000000
   O58            0.000000     0.000000     0.000000
   O59            0.000000     0.000000     0.000000
   O60            0.000000     0.000000     0.000000
   O61            0.000000     0.000000     0.000000
   O62            0.000000     0.000000     0.000000
   O63            0.000000     0.000000     0.000000
   O64            0.000000     0.000000     0.000000
   O65            0.000000     0.000000     0.000000
   O66            0.000000     0.000000     0.000000
   O67            0.000000     0.000000     0.000000
   O68            0.000000     0.000000     0.000000
   O69            0.000000     0.000000     0.000000
   O70            0.000000     0.000000     0.000000
   O71            0.000000     0.000000     0.000000
   O72            0.000000     0.000000     0.000000
   O73            0.000000     0.000000     0.000000
   O74            0.000000     0.000000     0.000000
   O75            0.000000     0.000000     0.000000
   O76            0.000000     0.000000     0.000000
   O77            0.000000     0.000000     0.000000
   O78            0.000000     0.000000     0.000000
   O79            0.000000     0.000000     0.000000
   O80            0.000000     0.000000     0.000000
   O81            0.000000     0.000000     0.000000
   O82            0.000000     0.000000     0.000000
   O83            0.000000     0.000000     0.000000
   O84            0.000000     0.000000     0.000000
   O85            0.000000     0.000000     0.000000
   O86            0.000000     0.000000     0.000000
   O87            0.000000     0.000000     0.000000
   O88            0.000000     0.000000     0.000000
   O89            0.000000     0.000000     0.000000
   O90            0.000000     0.000000     0.000000
   O91            0.000000     0.000000     0.000000
   O92            0.000000     0.000000     0.000000
   O93            0.000000     0.000000     0.000000
   O94            0.000000     0.000000     0.000000
   O95            0.000000     0.000000     0.000000
   Ho1            0.0.0000     0.008093     0.000000
