#======================================================================
# CRYSTAL DATA (generated from VESTA)
#----------------------------------------------------------------------
data_VESTA_phase_1

_chemical_name_common                  'unknown system'
_cell_length_a                         11.982219
_cell_length_b                         11.982219
_cell_length_c                         11.982219
_cell_angle_alpha                      89.981758
_cell_angle_beta                       89.981758
_cell_angle_gamma                      89.981758
_space_group_name_H-M_alt              'P 1'
_space_group_IT_number                 1

loop_
_space_group_symop_operation_xyz
   'x, y, z'

loop_
   _atom_site_label
   _atom_site_occupancy
   _atom_site_fract_x
   _atom_site_fract_y
   _atom_site_fract_z
   _atom_site_adp_type
   _atom_site_U_iso_or_equiv
   _atom_site_type_symbol
   Ba1         1.000     0.000932     0.000734     0.001211    Uiso  ? Ba
   Ba2         1.000     0.000265     0.000079     0.331403    Uiso  ? Ba
   Ba3         1.000     0.999833     0.999702     0.666593    Uiso  ? Ba
   Ba4         1.000     0.000593     0.333088     0.000917    Uiso  ? Ba
   Ba5         1.000     0.999814     0.333284     0.331841    Uiso  ? Ba
   Ba6         1.000     0.999872     0.332908     0.666583    Uiso  ? Ba
   Ba7         1.000     0.000396     0.667110     0.000776    Uiso  ? Ba
   Ba8         1.000     0.000147     0.666897     0.331786    Uiso  ? Ba
   Ba9         1.000     0.999770     0.666315     0.666443    Uiso  ? Ba
   Ba10        1.000     0.333315     0.000381     0.000915    Uiso  ? Ba
   Ba11        1.000     0.333485     0.999596     0.331911    Uiso  ? Ba
   Ba12        1.000     0.333076     0.999717     0.666521    Uiso  ? Ba
   Ba13        1.000     0.333512     0.333284     0.000487    Uiso  ? Ba
   Ba14        1.000     0.333792     0.333617     0.332473    Uiso  ? Ba
   Ba15        1.000     0.333021     0.332863     0.666502    Uiso  ? Ba
   Ba16        1.000     0.333070     0.667032     0.000669    Uiso  ? Ba
   Ba17        1.000     0.332984     0.666816     0.332003    Uiso  ? Ba
   Ba18        1.000     0.333084     0.666298     0.666417    Uiso  ? Ba
   Ba19        1.000     0.667273     0.000237     0.000803    Uiso  ? Ba
   Ba20        1.000     0.667097     0.999976     0.331842    Uiso  ? Ba
   Ba21        1.000     0.666471     0.999638     0.666427    Uiso  ? Ba
   Ba22        1.000     0.667214     0.332910     0.000690    Uiso  ? Ba
   Ba23        1.000     0.667020     0.332848     0.331995    Uiso  ? Ba
   Ba24        1.000     0.666483     0.332985     0.666457    Uiso  ? Ba
   Ba25        1.000     0.666812     0.666676     0.000524    Uiso  ? Ba
   Ba26        1.000     0.666739     0.666564     0.332146    Uiso  ? Ba
   Ba27        1.000     0.666511     0.666363     0.666402    Uiso  ? Ba
   Ti1         1.000     0.162551     0.162420     0.496743    Uiso  ? Ti
   Ti2         1.000     0.162341     0.162099     0.830340    Uiso  ? Ti
   Ti3         1.000     0.163714     0.499806     0.161845    Uiso  ? Ti
   Ti4         1.000     0.162306     0.495909     0.495627    Uiso  ? Ti
   Ti5         1.000     0.162235     0.495703     0.829222    Uiso  ? Ti
   Ti6         1.000     0.163468     0.834498     0.161563    Uiso  ? Ti
   Ti7         1.000     0.162361     0.828889     0.495774    Uiso  ? Ti
   Ti8         1.000     0.162254     0.828904     0.829247    Uiso  ? Ti
   Ti9         1.000     0.500033     0.163542     0.161908    Uiso  ? Ti
   Ti10        1.000     0.496072     0.162222     0.495660    Uiso  ? Ti
   Ti11        1.000     0.495924     0.162138     0.829210    Uiso  ? Ti
   Ti12        1.000     0.497424     0.497262     0.161905    Uiso  ? Ti
   Ti13        1.000     0.495926     0.495758     0.495553    Uiso  ? Ti
   Ti14        1.000     0.495758     0.495608     0.829206    Uiso  ? Ti
   Ti15        1.000     0.497366     0.830638     0.161798    Uiso  ? Ti
   Ti16        1.000     0.495901     0.828998     0.495562    Uiso  ? Ti
   Ti17        1.000     0.495702     0.828985     0.829224    Uiso  ? Ti
   Ti18        1.000     0.834698     0.163301     0.161573    Uiso  ? Ti
   Ti19        1.000     0.828992     0.162259     0.495783    Uiso  ? Ti
   Ti20        1.000     0.829030     0.162124     0.829308    Uiso  ? Ti
   Ti21        1.000     0.830776     0.497206     0.161779    Uiso  ? Ti
   Ti22        1.000     0.829182     0.495730     0.495566    Uiso  ? Ti
   Ti23        1.000     0.829093     0.495558     0.829256    Uiso  ? Ti
   Ti24        1.000     0.830754     0.830623     0.161645    Uiso  ? Ti
   Ti25        1.000     0.829232     0.829052     0.495550    Uiso  ? Ti
   Ti26        1.000     0.829039     0.828958     0.829213    Uiso  ? Ti
   O1          1.000     0.170727     0.170359     0.002805    Uiso  ? O
   O2          1.000     0.170912     0.170718     0.338674    Uiso  ? O
   O3          1.000     0.171213     0.171005     0.671905    Uiso  ? O
   O4          1.000     0.171132     0.504600     0.004297    Uiso  ? O
   O5          1.000     0.171103     0.504308     0.339591    Uiso  ? O
   O6          1.000     0.171272     0.504237     0.672203    Uiso  ? O
   O7          1.000     0.171178     0.836073     0.003777    Uiso  ? O
   O8          1.000     0.171182     0.836141     0.340042    Uiso  ? O
   O9          1.000     0.171405     0.837527     0.672193    Uiso  ? O
   O10         1.000     0.504776     0.170940     0.004352    Uiso  ? O
   O11         1.000     0.504613     0.170940     0.339598    Uiso  ? O
   O12         1.000     0.504481     0.171129     0.672201    Uiso  ? O
   O13         1.000     0.504546     0.504380     0.004783    Uiso  ? O
   O14         1.000     0.504435     0.504257     0.339166    Uiso  ? O
   O15         1.000     0.504620     0.504457     0.672279    Uiso  ? O
   O16         1.000     0.504667     0.837482     0.004648    Uiso  ? O
   O17         1.000     0.504494     0.837495     0.339305    Uiso  ? O
   O18         1.000     0.504642     0.837719     0.672295    Uiso  ? O
   O19         1.000     0.836291     0.170990     0.003790    Uiso  ? O
   O20         1.000     0.836383     0.171024     0.340038    Uiso  ? O
   O21         1.000     0.837749     0.171257     0.672240    Uiso  ? O
   O22         1.000     0.837664     0.504498     0.004648    Uiso  ? O
   O23         1.000     0.837692     0.504311     0.339282    Uiso  ? O
   O24         1.000     0.837880     0.504480     0.672304    Uiso  ? O
   O25         1.000     0.837672     0.837519     0.004530    Uiso  ? O
   O26         1.000     0.837748     0.837561     0.339412    Uiso  ? O
   O27         1.000     0.837899     0.837756     0.672323    Uiso  ? O
   O28         1.000     0.169112     0.996139     0.171471    Uiso  ? O
   O29         1.000     0.171160     0.005305     0.504616    Uiso  ? O
   O30         1.000     0.171298     0.004918     0.837319    Uiso  ? O
   O31         1.000     0.169114     0.341760     0.171455    Uiso  ? O
   O32         1.000     0.171171     0.338341     0.504661    Uiso  ? O
   O33         1.000     0.171296     0.338672     0.837520    Uiso  ? O
   O34         1.000     0.169882     0.670276     0.171650    Uiso  ? O
   O35         1.000     0.171104     0.671454     0.505388    Uiso  ? O
   O36         1.000     0.171277     0.671701     0.837198    Uiso  ? O
   O37         1.000     0.504580     0.002865     0.171102    Uiso  ? O
   O38         1.000     0.504436     0.005088     0.504862    Uiso  ? O
   O39         1.000     0.504593     0.005133     0.837881    Uiso  ? O
   O40         1.000     0.504169     0.338584     0.171157    Uiso  ? O
   O41         1.000     0.504437     0.338615     0.504785    Uiso  ? O
   O42         1.000     0.504573     0.338676     0.837942    Uiso  ? O
   O43         1.000     0.504268     0.670989     0.171225    Uiso  ? O
   O44         1.000     0.504541     0.671802     0.504912    Uiso  ? O
   O45         1.000     0.504607     0.671901     0.837819    Uiso  ? O
   O46         1.000     0.834600     0.002569     0.171123    Uiso  ? O
   O47         1.000     0.837893     0.005126     0.504992    Uiso  ? O
   O48         1.000     0.838060     0.005180     0.837823    Uiso  ? O
   O49         1.000     0.835010     0.338950     0.171183    Uiso  ? O
   O50         1.000     0.837906     0.338595     0.504869    Uiso  ? O
   O51         1.000     0.838052     0.338700     0.837905    Uiso  ? O
   O52         1.000     0.835636     0.671074     0.171350    Uiso  ? O
   O53         1.000     0.837830     0.671840     0.504930    Uiso  ? O
   O54         1.000     0.837959     0.671945     0.837792    Uiso  ? O
   O55         1.000     0.996401     0.168855     0.171416    Uiso  ? O
   O56         1.000     0.005484     0.171017     0.504637    Uiso  ? O
   O57         1.000     0.005186     0.171058     0.837375    Uiso  ? O
   O58         1.000     0.003091     0.504341     0.171053    Uiso  ? O
   O59         1.000     0.005215     0.504256     0.504858    Uiso  ? O
   O60         1.000     0.005323     0.504411     0.837895    Uiso  ? O
   O61         1.000     0.002775     0.834374     0.171104    Uiso  ? O
   O62         1.000     0.005248     0.837738     0.504987    Uiso  ? O
   O63         1.000     0.005357     0.837896     0.837803    Uiso  ? O
   O64         1.000     0.342004     0.168850     0.171569    Uiso  ? O
   O65         1.000     0.338543     0.171029     0.504643    Uiso  ? O
   O66         1.000     0.338890     0.171095     0.837464    Uiso  ? O
   O67         1.000     0.338776     0.503963     0.171135    Uiso  ? O
   O68         1.000     0.338775     0.504261     0.504776    Uiso  ? O
   O69         1.000     0.338826     0.504382     0.837938    Uiso  ? O
   O70         1.000     0.339146     0.834772     0.171188    Uiso  ? O
   O71         1.000     0.338767     0.837715     0.504872    Uiso  ? O
   O72         1.000     0.338846     0.837869     0.837875    Uiso  ? O
   O73         1.000     0.670519     0.169677     0.171659    Uiso  ? O
   O74         1.000     0.671661     0.171005     0.505412    Uiso  ? O
   O75         1.000     0.671879     0.171103     0.837239    Uiso  ? O
   O76         1.000     0.671178     0.504056     0.171212    Uiso  ? O
   O77         1.000     0.671989     0.504379     0.504902    Uiso  ? O
   O78         1.000     0.672069     0.504461     0.837840    Uiso  ? O
   O79         1.000     0.671272     0.835436     0.171367    Uiso  ? O
   O80         1.000     0.672006     0.837678     0.504932    Uiso  ? O
   O81         1.000     0.672092     0.837814     0.837789    Uiso  ? O
   Eu1         1.000     0.167677     0.167408     0.163902    Uiso  ? Eu

loop_
   _atom_site_moment_label
   _atom_site_moment_crystalaxis_x
   _atom_site_moment_crystalaxis_y
   _atom_site_moment_crystalaxis_z
   Ba1            0.000000     0.000000     0.000000
   Ba2            0.000000     0.000000     0.000000
   Ba3            0.000000     0.000000     0.000000
   Ba4            0.000000     0.000000     0.000000
   Ba5            0.000000     0.000000     0.000000
   Ba6            0.000000     0.000000     0.000000
   Ba7            0.000000     0.000000     0.000000
   Ba8            0.000000     0.000000     0.000000
   Ba9            0.000000     0.000000     0.000000
   Ba10           0.000000     0.000000     0.000000
   Ba11           0.000000     0.000000     0.000000
   Ba12           0.000000     0.000000     0.000000
   Ba13           0.000000     0.000000     0.000000
   Ba14           0.000000     0.000000     0.000000
   Ba15           0.000000     0.000000     0.000000
   Ba16           0.000000     0.000000     0.000000
   Ba17           0.000000     0.000000     0.000000
   Ba18           0.000000     0.000000     0.000000
   Ba19           0.000000     0.000000     0.000000
   Ba20           0.000000     0.000000     0.000000
   Ba21           0.000000     0.000000     0.000000
   Ba22           0.000000     0.000000     0.000000
   Ba23           0.000000     0.000000     0.000000
   Ba24           0.000000     0.000000     0.000000
   Ba25           0.000000     0.000000     0.000000
   Ba26           0.000000     0.000000     0.000000
   Ba27           0.000000     0.000000     0.000000
   Ti1            0.000000     0.000000     0.000000
   Ti2            0.000000     0.000000     0.000000
   Ti3            0.000000     0.000000     0.000000
   Ti4            0.000000     0.000000     0.000000
   Ti5            0.000000     0.000000     0.000000
   Ti6            0.000000     0.000000     0.000000
   Ti7            0.000000     0.000000     0.000000
   Ti8            0.000000     0.000000     0.000000
   Ti9            0.000000     0.000000     0.000000
   Ti10           0.000000     0.000000     0.000000
   Ti11           0.000000     0.000000     0.000000
   Ti12           0.000000     0.000000     0.000000
   Ti13           0.000000     0.000000     0.000000
   Ti14           0.000000     0.000000     0.000000
   Ti15           0.000000     0.000000     0.000000
   Ti16           0.000000     0.000000     0.000000
   Ti17           0.000000     0.000000     0.000000
   Ti18           0.000000     0.000000     0.000000
   Ti19           0.000000     0.000000     0.000000
   Ti20           0.000000     0.000000     0.000000
   Ti21           0.000000     0.000000     0.000000
   Ti22           0.000000     0.000000     0.000000
   Ti23           0.000000     0.000000     0.000000
   Ti24           0.000000     0.000000     0.000000
   Ti25           0.000000     0.000000     0.000000
   Ti26           0.000000     0.000000     0.000000
   O1            -0.265871    -0.285878    -0.375371
   O2             0.000000     0.000000     0.000000
   O3             0.000000     0.000000     0.000000
   O4             0.000000     0.000000     0.000000
   O5             0.000000     0.000000     0.000000
   O6             0.000000     0.000000     0.000000
   O7             0.000000     0.000000     0.000000
   O8             0.000000     0.000000     0.000000
   O9             0.000000     0.000000     0.000000
   O10            0.000000     0.000000     0.000000
   O11            0.000000     0.000000     0.000000
   O12            0.000000     0.000000     0.000000
   O13            0.000000     0.000000     0.000000
   O14            0.000000     0.000000     0.000000
   O15            0.000000     0.000000     0.000000
   O16            0.000000     0.000000     0.000000
   O17            0.000000     0.000000     0.000000
   O18            0.000000     0.000000     0.000000
   O19            0.000000     0.000000     0.000000
   O20            0.000000     0.000000     0.000000
   O21            0.000000     0.000000     0.000000
   O22            0.000000     0.000000     0.000000
   O23            0.000000     0.000000     0.000000
   O24            0.000000     0.000000     0.000000
   O25            0.000000     0.000000     0.000000
   O26            0.000000     0.000000     0.000000
   O27            0.000000     0.000000     0.000000
   O28           -0.451345    -1.323392    -0.023049
   O29            0.000000     0.000000     0.000000
   O30            0.000000     0.000000     0.000000
   O31           -0.453615     0.275387    -0.074198
   O32            0.000000     0.000000     0.000000
   O33            0.000000     0.000000     0.000000
   O34            0.000000     0.000000     0.000000
   O35            0.000000     0.000000     0.000000
   O36            0.000000     0.000000     0.000000
   O37            0.000000     0.000000     0.000000
   O38            0.000000     0.000000     0.000000
   O39            0.000000     0.000000     0.000000
   O40            0.000000     0.000000     0.000000
   O41            0.000000     0.000000     0.000000
   O42            0.000000     0.000000     0.000000
   O43            0.000000     0.000000     0.000000
   O44            0.000000     0.000000     0.000000
   O45            0.000000     0.000000     0.000000
   O46           -0.476477    -0.383989    -0.020866
   O47            0.000000     0.000000     0.000000
   O48            0.000000     0.000000     0.000000
   O49            0.000000     0.000000     0.000000
   O50            0.000000     0.000000     0.000000
   O51            0.000000     0.000000     0.000000
   O52            0.000000     0.000000     0.000000
   O53            0.000000     0.000000     0.000000
   O54            0.000000     0.000000     0.000000
   O55           -1.316684    -0.458534    -0.029879
   O56            0.000000     0.000000     0.000000
   O57            0.000000     0.000000     0.000000
   O58            0.000000     0.000000     0.000000
   O59            0.000000     0.000000     0.000000
   O60            0.000000     0.000000     0.000000
   O61           -0.379198    -0.483067    -0.023742
   O62            0.000000     0.000000     0.000000
   O63            0.000000     0.000000     0.000000
   O64            0.280900    -0.462958    -0.061498
   O65            0.000000     0.000000     0.000000
   O66            0.000000     0.000000     0.000000
   O67            0.000000     0.000000     0.000000
   O68            0.000000     0.000000     0.000000
   O69            0.000000     0.000000     0.000000
   O70            0.000000     0.000000     0.000000
   O71            0.000000     0.000000     0.000000
   O72            0.000000     0.000000     0.000000
   O73            0.000000     0.000000     0.000000
   O74            0.000000     0.000000     0.000000
   O75            0.000000     0.000000     0.000000
   O76            0.000000     0.000000     0.000000
   O77            0.000000     0.000000     0.000000
   O78            0.000000     0.000000     0.000000
   O79            0.000000     0.000000     0.000000
   O80            0.000000     0.000000     0.000000
   O81            0.000000     0.000000     0.000000
   Eu1            0.000000     0.000000     0.000000
