#======================================================================
# CRYSTAL DATA (generated from VESTA)
#----------------------------------------------------------------------
data_VESTA_phase_1

_chemical_name_common                  'unknown system'
_cell_length_a                         12.02457
_cell_length_b                         12.02457
_cell_length_c                         12.02457
_cell_angle_alpha                      90.000000
_cell_angle_beta                       90.000000
_cell_angle_gamma                      90.000000
_space_group_name_H-M_alt              'P 1'
_space_group_IT_number                 1

loop_
_space_group_symop_operation_xyz
   'x, y, z'

loop_
   _atom_site_label
   _atom_site_occupancy
   _atom_site_fract_x
   _atom_site_fract_y
   _atom_site_fract_z
   _atom_site_adp_type
   _atom_site_U_iso_or_equiv
   _atom_site_type_symbol
Ba1 1.000 0.166622 0.336835 0.168249 Uiso ? Ba
Ba2 1.000 0.166623 0.333863 0.500034 Uiso ? Ba
Ba3 1.000 0.166621 0.336842 0.831814 Uiso ? Ba
Ba4 1.000 0.166624 0.666652 0.166435 Uiso ? Ba
Ba5 1.000 0.166621 0.666655 0.500032 Uiso ? Ba
Ba6 1.000 0.166624 0.666654 0.833630 Uiso ? Ba
Ba7 1.000 0.166622 0.996472 0.168252 Uiso ? Ba
Ba8 1.000 0.166624 0.999448 0.500032 Uiso ? Ba
Ba9 1.000 0.166622 0.99647 0.831816 Uiso ? Ba
Ba10 1.000 0.500579 0.335022 0.167886 Uiso ? Ba
Ba11 1.000 0.500056 0.33341 0.500035 Uiso ? Ba
Ba12 1.000 0.500582 0.335024 0.832182 Uiso ? Ba
Ba13 1.000 0.499968 0.666652 0.166663 Uiso ? Ba
Ba14 1.000 0.499974 0.666654 0.500034 Uiso ? Ba
Ba15 1.000 0.499968 0.666653 0.833412 Uiso ? Ba
Ba16 1.000 0.500579 0.998283 0.167885 Uiso ? Ba
Ba17 1.000 0.500055 0.999895 0.500035 Uiso ? Ba
Ba18 1.000 0.500582 0.998281 0.832183 Uiso ? Ba
Ba19 1.000 0.832662 0.335022 0.167881 Uiso ? Ba
Ba20 1.000 0.833187 0.333407 0.500035 Uiso ? Ba
Ba21 1.000 0.832662 0.335023 0.832187 Uiso ? Ba
Ba22 1.000 0.833279 0.666652 0.166656 Uiso ? Ba
Ba23 1.000 0.833271 0.666653 0.500034 Uiso ? Ba
Ba24 1.000 0.833277 0.666652 0.833417 Uiso ? Ba
Ba25 1.000 0.832663 0.998284 0.167880 Uiso ? Ba
Ba26 1.000 0.833188 0.999898 0.500034 Uiso ? Ba
Ba27 1.000 0.832661 0.998281 0.832188 Uiso ? Ba
Ti1 1.000 0.991279 1.16665 0.000034 Uiso ? Ti
Ti2 1.000 0.000498 1.16665 0.333888 Uiso ? Ti
Ti3 1.000 0.000501 1.16665 0.666181 Uiso ? Ti
Ti4 1.000 0.999606 0.500043 0.000037 Uiso ? Ti
Ti5 1.000 0.999728 0.500346 0.333605 Uiso ? Ti
Ti6 1.000 0.999727 0.500348 0.666465 Uiso ? Ti
Ti7 1.000 0.999606 0.833258 0.000037 Uiso ? Ti
Ti8 1.000 0.999729 0.832961 0.333606 Uiso ? Ti
Ti9 1.000 0.999727 0.832961 0.666468 Uiso ? Ti
Ti10 1.000 0.341949 1.16665 0.000035 Uiso ? Ti
Ti11 1.000 0.332744 1.16665 0.333888 Uiso ? Ti
Ti12 1.000 0.332746 1.16666 0.666184 Uiso ? Ti
Ti13 1.000 0.333649 0.500045 0.000037 Uiso ? Ti
Ti14 1.000 0.333509 0.500346 0.333606 Uiso ? Ti
Ti15 1.000 0.333509 0.50035 0.666467 Uiso ? Ti
Ti16 1.000 0.333649 0.833259 0.000037 Uiso ? Ti
Ti17 1.000 0.333509 0.832961 0.333605 Uiso ? Ti
Ti18 1.000 0.333507 0.832962 0.666466 Uiso ? Ti
Ti19 1.000 0.666614 1.16665 0.000036 Uiso ? Ti
Ti20 1.000 0.666620 1.16665 0.333099 Uiso ? Ti
Ti21 1.000 0.666622 1.16665 0.666975 Uiso ? Ti
Ti22 1.000 0.666625 0.500222 0.000043 Uiso ? Ti
Ti23 1.000 0.666619 0.500348 0.333732 Uiso ? Ti
Ti24 1.000 0.666619 0.50035 0.666352 Uiso ? Ti
Ti25 1.000 0.666625 0.833072 0.000043 Uiso ? Ti
Ti26 1.000 0.666619 0.832959 0.333724 Uiso ? Ti
Ti27 1.000 0.666618 0.83295 0.666352 Uiso ? Ti
O1 1.000 0.166622 1.16665 0.333706 Uiso ? O
O2 1.000 0.166622 1.16665 0.666357 Uiso ? O
O3 1.000 0.166621 0.499456 0.000032 Uiso ? O
O4 1.000 0.166623 0.499692 0.333113 Uiso ? O
O5 1.000 0.166623 0.499695 0.666948 Uiso ? O
O6 1.000 0.166623 0.833852 0.000031 Uiso ? O
O7 1.000 0.166624 0.833616 0.333113 Uiso ? O
O8 1.000 0.166623 0.833614 0.666949 Uiso ? O
O9 1.000 0.500991 1.16665 0.000031 Uiso ? O
O10 1.000 0.499131 1.16665 0.331391 Uiso ? O
O11 1.000 0.499131 1.16665 0.668669 Uiso ? O
O12 1.000 0.500088 0.499777 0.000032 Uiso ? O
O13 1.000 0.500009 0.499857 0.333466 Uiso ? O
O14 1.000 0.500008 0.499859 0.666597 Uiso ? O
O15 1.000 0.500089 0.833527 0.000034 Uiso ? O
O16 1.000 0.500009 0.833449 0.333465 Uiso ? O
O17 1.000 0.500009 0.833448 0.666598 Uiso ? O
O18 1.000 0.832244 1.16665 0.000033 Uiso ? O
O19 1.000 0.834112 1.16665 0.331390 Uiso ? O
O20 1.000 0.834111 1.16665 0.668670 Uiso ? O
O21 1.000 0.833155 0.499777 0.000032 Uiso ? O
O22 1.000 0.833239 0.499855 0.333465 Uiso ? O
O23 1.000 0.833238 0.499857 0.666599 Uiso ? O
O24 1.000 0.833156 0.833529 0.000033 Uiso ? O
O25 1.000 0.833240 0.833451 0.333465 Uiso ? O
O26 1.000 0.833239 0.833449 0.666599 Uiso ? O
O27 1.000 0.999583 0.332715 0.000032 Uiso ? O
O28 1.000 0.999899 0.332996 0.332916 Uiso ? O
O29 1.000 0.999899 0.332997 0.667147 Uiso ? O
O30 1.000 0.000049 0.666653 0.000031 Uiso ? O
O31 1.000 0.999976 0.666654 0.333538 Uiso ? O
O32 1.000 0.999974 0.666654 0.666523 Uiso ? O
O33 1.000 0.999584 1.00059 0.000033 Uiso ? O
O34 1.000 0.999900 1.00031 0.332915 Uiso ? O
O35 1.000 0.999899 1.00031 0.667148 Uiso ? O
O36 1.000 0.333658 0.332713 0.000031 Uiso ? O
O37 1.000 0.333349 0.332997 0.332914 Uiso ? O
O38 1.000 0.333347 0.332997 0.667146 Uiso ? O
O39 1.000 0.333200 0.666653 0.000032 Uiso ? O
O40 1.000 0.333273 0.666654 0.333539 Uiso ? O
O41 1.000 0.333275 0.666654 0.666522 Uiso ? O
O42 1.000 0.333659 1.00059 0.000032 Uiso ? O
O43 1.000 0.333348 1.00031 0.332915 Uiso ? O
O44 1.000 0.333347 1.00031 0.667146 Uiso ? O
O45 1.000 0.666616 0.332743 0.000032 Uiso ? O
O46 1.000 0.666622 0.333098 0.333458 Uiso ? O
O47 1.000 0.666622 0.333099 0.666606 Uiso ? O
O48 1.000 0.666619 0.666652 0.000034 Uiso ? O
O49 1.000 0.666626 0.666653 0.333415 Uiso ? O
O50 1.000 0.666625 0.666653 0.666649 Uiso ? O
O51 1.000 0.666614 1.00056 0.000033 Uiso ? O
O52 1.000 0.666623 1.00021 0.333457 Uiso ? O
O53 1.000 0.666622 1.00021 0.666607 Uiso ? O
O54 1.000 0.005495 1.16665 0.164010 Uiso ? O
O55 1.000 0.000099 1.16665 0.500031 Uiso ? O
O56 1.000 0.005491 1.16665 0.836053 Uiso ? O
O57 1.000 0.999732 0.500051 0.166790 Uiso ? O
O58 1.000 0.000017 0.499729 0.500031 Uiso ? O
O59 1.000 0.999733 0.500053 0.833272 Uiso ? O
O60 1.000 0.999734 0.833256 0.166790 Uiso ? O
O61 1.000 0.000018 0.833579 0.500031 Uiso ? O
O62 1.000 0.999733 0.833255 0.833273 Uiso ? O
O63 1.000 0.327749 1.16665 0.164010 Uiso ? O
O64 1.000 0.333146 1.16665 0.500031 Uiso ? O
O65 1.000 0.327752 1.16665 0.836048 Uiso ? O
O66 1.000 0.333515 0.500052 0.166791 Uiso ? O
O67 1.000 0.333231 0.499729 0.500031 Uiso ? O
O68 1.000 0.333515 0.500053 0.833272 Uiso ? O
O69 1.000 0.333515 0.833254 0.166791 Uiso ? O
O70 1.000 0.333231 0.833578 0.500031 Uiso ? O
O71 1.000 0.333515 0.833255 0.833272 Uiso ? O
O72 1.000 0.666614 1.16665 0.166111 Uiso ? O
O73 1.000 0.666621 1.16665 0.500031 Uiso ? O
O74 1.000 0.666616 1.16665 0.833952 Uiso ? O
O75 1.000 0.666621 0.499694 0.166791 Uiso ? O
O76 1.000 0.666625 0.499938 0.500032 Uiso ? O
O77 1.000 0.666620 0.499696 0.833275 Uiso ? O
O78 1.000 0.666622 0.83361 0.166791 Uiso ? O
O79 1.000 0.666625 0.833368 0.500032 Uiso ? O
O80 1.000 0.666621 0.833608 0.833276 Uiso ? O
Ho1 1.000 0.166619 1.16665 0.000028 Uiso ? Ho

loop_
   _atom_site_moment_label
   _atom_site_moment_crystalaxis_x
   _atom_site_moment_crystalaxis_y
   _atom_site_moment_crystalaxis_z
   Ba1            0.000000     0.000000     0.000000
   Ba2            0.000000     0.000000     0.000000
   Ba3            0.000000     0.000000     0.000000
   Ba4            0.000000     0.000000     0.000000
   Ba5            0.000000     0.000000     0.000000
   Ba6            0.000000     0.000000     0.000000
   Ba7            0.000000     0.000000     0.000000
   Ba8            0.000000     0.000000     0.000000
   Ba9            0.000000     0.000000     0.000000
   Ba10           0.000000     0.000000     0.000000
   Ba11           0.000000     0.000000     0.000000
   Ba12           0.000000     0.000000     0.000000
   Ba13           0.000000     0.000000     0.000000
   Ba14           0.000000     0.000000     0.000000
   Ba15           0.000000     0.000000     0.000000
   Ba16           0.000000     0.000000     0.000000
   Ba17           0.000000     0.000000     0.000000
   Ba18           0.000000     0.000000     0.000000
   Ba19           0.000000     0.000000     0.000000
   Ba20           0.000000     0.000000     0.000000
   Ba21           0.000000     0.000000     0.000000
   Ba22           0.000000     0.000000     0.000000
   Ba23           0.000000     0.000000     0.000000
   Ba24           0.000000     0.000000     0.000000
   Ba25           0.000000     0.000000     0.000000
   Ba26           0.000000     0.000000     0.000000
   Ba27           0.000000     0.000000     0.000000
   Ti1           -1.005735     0.000481    -0.000721
   Ti2            0.000000     0.000000     0.000000
   Ti3            0.000000     0.000000     0.000000
   Ti4            0.000000     0.000000     0.000000
   Ti5            0.000000     0.000000     0.000000
   Ti6            0.000000     0.000000     0.000000
   Ti7            0.000000     0.000000     0.000000
   Ti8            0.000000     0.000000     0.000000
   Ti9            0.000000     0.000000     0.000000
   Ti10           1.007418     0.000601    -0.000601
   Ti11           0.000000     0.000000     0.000000
   Ti12           0.000000     0.000000     0.000000
   Ti13           0.000000     0.000000     0.000000
   Ti14           0.000000     0.000000     0.000000
   Ti15           0.000000     0.000000     0.000000
   Ti16           0.000000     0.000000     0.000000
   Ti17           0.000000     0.000000     0.000000
   Ti18           0.000000     0.000000     0.000000
   Ti19           0.000000     0.000000     0.000000
   Ti20           0.000000     0.000000     0.000000
   Ti21           0.000000     0.000000     0.000000
   Ti22           0.000000     0.000000     0.000000
   Ti23           0.000000     0.000000     0.000000
   Ti24           0.000000     0.000000     0.000000
   Ti25           0.000000     0.000000     0.000000
   Ti26           0.000000     0.000000     0.000000
   Ti27           0.000000     0.000000     0.000000
   O1             0.000000     0.000000     0.000000
   O2             0.000000     0.000000     0.000000
   O3             0.000000     0.000000     0.000000
   O4             0.000000     0.000000     0.000000
   O5             0.000000     0.000000     0.000000
   O6             0.000000     0.000000     0.000000
   O7             0.000000     0.000000     0.000000
   O8             0.000000     0.000000     0.000000
   O9             0.000000     0.000000     0.000000
   O10            0.000000     0.000000     0.000000
   O11            0.000000     0.000000     0.000000
   O12            0.000000     0.000000     0.000000
   O13            0.000000     0.000000     0.000000
   O14            0.000000     0.000000     0.000000
   O15            0.000000     0.000000     0.000000
   O16            0.000000     0.000000     0.000000
   O17            0.000000     0.000000     0.000000
   O18            0.000000     0.000000     0.000000
   O19            0.000000     0.000000     0.000000
   O20            0.000000     0.000000     0.000000
   O21            0.000000     0.000000     0.000000
   O22            0.000000     0.000000     0.000000
   O23            0.000000     0.000000     0.000000
   O24            0.000000     0.000000     0.000000
   O25            0.000000     0.000000     0.000000
   O26            0.000000     0.000000     0.000000
   O27            0.000000     0.000000     0.000000
   O28            0.000000     0.000000     0.000000
   O29            0.000000     0.000000     0.000000
   O30            0.000000     0.000000     0.000000
   O31            0.000000     0.000000     0.000000
   O32            0.000000     0.000000     0.000000
   O33            0.000000     0.000000     0.000000
   O34            0.000000     0.000000     0.000000
   O35            0.000000     0.000000     0.000000
   O36            0.000000     0.000000     0.000000
   O37            0.000000     0.000000     0.000000
   O38            0.000000     0.000000     0.000000
   O39            0.000000     0.000000     0.000000
   O40            0.000000     0.000000     0.000000
   O41            0.000000     0.000000     0.000000
   O42            0.000000     0.000000     0.000000
   O43            0.000000     0.000000     0.000000
   O44            0.000000     0.000000     0.000000
   O45            0.000000     0.000000     0.000000
   O46            0.000000     0.000000     0.000000
   O47            0.000000     0.000000     0.000000
   O48            0.000000     0.000000     0.000000
   O49            0.000000     0.000000     0.000000
   O50            0.000000     0.000000     0.000000
   O51            0.000000     0.000000     0.000000
   O52            0.000000     0.000000     0.000000
   O53            0.000000     0.000000     0.000000
   O54            0.642954    -0.000120    -0.326828
   O55            0.000000     0.000000     0.000000
   O56            0.642954    -0.000361     0.327910
   O57            0.000000     0.000000     0.000000
   O58            0.000000     0.000000     0.000000
   O59            0.000000     0.000000     0.000000
   O60            0.000000     0.000000     0.000000
   O61            0.000000     0.000000     0.000000
   O62            0.000000     0.000000     0.000000
   O63           -0.643916    -0.000120    -0.326948
   O64            0.000000     0.000000     0.000000
   O65           -0.643916    -0.000120     0.327309
   O66            0.000000     0.000000     0.000000
   O67            0.000000     0.000000     0.000000
   O68            0.000000     0.000000     0.000000
   O69            0.000000     0.000000     0.000000
   O70            0.000000     0.000000     0.000000
   O71            0.000000     0.000000     0.000000
   O72            0.000000     0.000000     0.000000
   O73            0.000000     0.000000     0.000000
   O74            0.000000     0.000000     0.000000
   O75            0.000000     0.000000     0.000000
   O76            0.000000     0.000000     0.000000
   O77            0.000000     0.000000     0.000000
   O78            0.000000     0.000000     0.000000
   O79            0.000000     0.000000     0.000000
   O80            0.000000     0.000000     0.000000
   Ho1            0.000000     0.000000     0.000000
