#======================================================================
# CRYSTAL DATA (generated from VESTA)
#----------------------------------------------------------------------
data_VESTA_phase_1

_chemical_name_common                  'unknown system'
_cell_length_a                         11.028819
_cell_length_b                         11.028819
_cell_length_c                         15.789395
_cell_angle_alpha                      90.000000
_cell_angle_beta                       90.000000
_cell_angle_gamma                      90.000000
_space_group_name_H-M_alt              'P 1'
_space_group_IT_number                 1

loop_
_space_group_symop_operation_xyz
   'x, y, z'

loop_
   _atom_site_label
   _atom_site_occupancy
   _atom_site_fract_x
   _atom_site_fract_y
   _atom_site_fract_z
   _atom_site_adp_type
   _atom_site_U_iso_or_equiv
   _atom_site_type_symbol
   Sr1         1.000     0.248498     0.000302     0.125276    Uiso  ? Sr
   Sr2         1.000     0.249676     0.000497     0.625040    Uiso  ? Sr
   Sr3         1.000     0.250226     0.499656     0.125386    Uiso  ? Sr
   Sr4         1.000     0.250245     0.499943     0.624948    Uiso  ? Sr
   Sr5         1.000     0.751529     0.999806     0.125166    Uiso  ? Sr
   Sr6         1.000     0.750523     0.999762     0.624900    Uiso  ? Sr
   Sr7         1.000     0.749794     0.500500     0.125448    Uiso  ? Sr
   Sr8         1.000     0.749849     0.500235     0.625001    Uiso  ? Sr
   Sr9         1.000     0.000922     0.249420     0.375056    Uiso  ? Sr
   Sr10        1.000     0.999894     0.249642     0.875181    Uiso  ? Sr
   Sr11        1.000     0.999295     0.750838     0.374660    Uiso  ? Sr
   Sr12        1.000     0.000075     0.750449     0.874910    Uiso  ? Sr
   Sr13        1.000     0.500007     0.250473     0.374886    Uiso  ? Sr
   Sr14        1.000     0.499942     0.250087     0.874946    Uiso  ? Sr
   Sr15        1.000     0.500090     0.749693     0.375041    Uiso  ? Sr
   Sr16        1.000     0.500005     0.750051     0.875155    Uiso  ? Sr
   Sr17        1.000     0.000661     0.249303     0.125399    Uiso  ? Sr
   Sr18        1.000     0.999804     0.249652     0.625169    Uiso  ? Sr
   Sr19        1.000     0.999028     0.750730     0.125026    Uiso  ? Sr
   Sr20        1.000     0.000005     0.750446     0.624858    Uiso  ? Sr
   Sr21        1.000     0.499845     0.250429     0.124999    Uiso  ? Sr
   Sr22        1.000     0.499906     0.250060     0.624907    Uiso  ? Sr
   Sr23        1.000     0.499930     0.749633     0.125164    Uiso  ? Sr
   Sr24        1.000     0.499977     0.750012     0.625105    Uiso  ? Sr
   Sr25        1.000     0.248412     0.000348     0.374853    Uiso  ? Sr
   Sr26        1.000     0.249394     0.000354     0.875184    Uiso  ? Sr
   Sr27        1.000     0.250149     0.499648     0.374595    Uiso  ? Sr
   Sr28        1.000     0.250108     0.499879     0.875057    Uiso  ? Sr
   Sr29        1.000     0.751470     0.999857     0.374809    Uiso  ? Sr
   Sr30        1.000     0.750228     0.999607     0.874993    Uiso  ? Sr
   Sr31        1.000     0.749723     0.500489     0.374685    Uiso  ? Sr
   Sr32        1.000     0.749680     0.500163     0.875105    Uiso  ? Sr
   Ti1         1.000     0.999972     0.000028     0.750025    Uiso  ? Ti
   Ti2         1.000     0.999959     0.500071     0.250024    Uiso  ? Ti
   Ti3         1.000     0.999978     0.500043     0.750026    Uiso  ? Ti
   Ti4         1.000     0.499986     0.000057     0.250029    Uiso  ? Ti
   Ti5         1.000     0.499952     0.000042     0.750027    Uiso  ? Ti
   Ti6         1.000     0.499981     0.500057     0.250030    Uiso  ? Ti
   Ti7         1.000     0.499962     0.500056     0.750027    Uiso  ? Ti
   Ti8         1.000     0.250105     0.250227     0.500075    Uiso  ? Ti
   Ti9         1.000     0.250010     0.250188     0.999989    Uiso  ? Ti
   Ti10        1.000     0.249984     0.750044     0.500057    Uiso  ? Ti
   Ti11        1.000     0.249898     0.750022     0.000017    Uiso  ? Ti
   Ti12        1.000     0.750013     0.250110     0.500054    Uiso  ? Ti
   Ti13        1.000     0.749948     0.250078     0.999995    Uiso  ? Ti
   Ti14        1.000     0.749923     0.749949     0.500055    Uiso  ? Ti
   Ti15        1.000     0.749840     0.749902     0.999954    Uiso  ? Ti
   Ti16        1.000     0.999825     0.000088     0.000184    Uiso  ? Ti
   Ti17        1.000     0.000104     0.000067     0.499875    Uiso  ? Ti
   Ti18        1.000     0.999933     0.500029     0.000055    Uiso  ? Ti
   Ti19        1.000     0.000007     0.500097     0.499994    Uiso  ? Ti
   Ti20        1.000     0.499913     0.000078     0.000157    Uiso  ? Ti
   Ti21        1.000     0.500009     0.000046     0.499903    Uiso  ? Ti
   Ti22        1.000     0.499930     0.500047     0.999926    Uiso  ? Ti
   Ti23        1.000     0.499994     0.500092     0.500130    Uiso  ? Ti
   Ti24        1.000     0.250248     0.249336     0.250029    Uiso  ? Ti
   Ti25        1.000     0.250082     0.250203     0.750043    Uiso  ? Ti
   Ti26        1.000     0.249705     0.750160     0.250004    Uiso  ? Ti
   Ti27        1.000     0.250068     0.749946     0.750029    Uiso  ? Ti
   Ti28        1.000     0.750252     0.249961     0.250042    Uiso  ? Ti
   Ti29        1.000     0.749842     0.250155     0.750030    Uiso  ? Ti
   Ti30        1.000     0.749694     0.750795     0.250023    Uiso  ? Ti
   Ti31        1.000     0.749854     0.749893     0.750010    Uiso  ? Ti
   O1          1.000     0.356677     0.106547     0.999822    Uiso  ? O
   O2          1.000     0.356816     0.106581     0.500236    Uiso  ? O
   O3          1.000     0.356427     0.606428     0.999363    Uiso  ? O
   O4          1.000     0.356458     0.606429     0.499732    Uiso  ? O
   O5          1.000     0.856033     0.107287     0.997961    Uiso  ? O
   O6          1.000     0.856290     0.107343     0.500815    Uiso  ? O
   O7          1.000     0.856448     0.606202     0.999702    Uiso  ? O
   O8          1.000     0.856519     0.606254     0.500417    Uiso  ? O
   O9          1.000     0.106635     0.357330     0.250046    Uiso  ? O
   O10         1.000     0.106544     0.356839     0.750053    Uiso  ? O
   O11         1.000     0.107327     0.853931     0.249346    Uiso  ? O
   O12         1.000     0.107024     0.856557     0.749531    Uiso  ? O
   O13         1.000     0.606365     0.356434     0.249555    Uiso  ? O
   O14         1.000     0.606371     0.356674     0.749567    Uiso  ? O
   O15         1.000     0.604153     0.855401     0.249966    Uiso  ? O
   O16         1.000     0.606448     0.856773     0.750044    Uiso  ? O
   O17         1.000     0.107307     0.144121     0.998802    Uiso  ? O
   O18         1.000     0.107447     0.144148     0.501873    Uiso  ? O
   O19         1.000     0.106249     0.643527     0.999958    Uiso  ? O
   O20         1.000     0.106301     0.643585     0.500082    Uiso  ? O
   O21         1.000     0.606316     0.143593     0.999811    Uiso  ? O
   O22         1.000     0.606457     0.143531     0.500384    Uiso  ? O
   O23         1.000     0.606012     0.643272     0.999459    Uiso  ? O
   O24         1.000     0.606085     0.643298     0.501011    Uiso  ? O
   O25         1.000     0.357188     0.394371     0.250286    Uiso  ? O
   O26         1.000     0.356692     0.393757     0.750300    Uiso  ? O
   O27         1.000     0.355809     0.894444     0.250046    Uiso  ? O
   O28         1.000     0.356627     0.893463     0.750078    Uiso  ? O
   O29         1.000     0.856043     0.394298     0.249990    Uiso  ? O
   O30         1.000     0.856642     0.393510     0.749963    Uiso  ? O
   O31         1.000     0.851575     0.890473     0.250357    Uiso  ? O
   O32         1.000     0.856533     0.892918     0.750304    Uiso  ? O
   O33         1.000     0.148353     0.109691     0.249682    Uiso  ? O
   O34         1.000     0.143389     0.107165     0.749747    Uiso  ? O
   O35         1.000     0.143854     0.605878     0.250063    Uiso  ? O
   O36         1.000     0.143322     0.606553     0.750090    Uiso  ? O
   O37         1.000     0.644162     0.105659     0.250009    Uiso  ? O
   O38         1.000     0.643268     0.106646     0.749982    Uiso  ? O
   O39         1.000     0.642764     0.605739     0.249788    Uiso  ? O
   O40         1.000     0.643242     0.606349     0.749763    Uiso  ? O
   O41         1.000     0.393923     0.356846     0.500583    Uiso  ? O
   O42         1.000     0.393850     0.356837     0.999036    Uiso  ? O
   O43         1.000     0.393618     0.856518     0.500240    Uiso  ? O
   O44         1.000     0.393455     0.856603     0.999689    Uiso  ? O
   O45         1.000     0.893666     0.356619     0.500115    Uiso  ? O
   O46         1.000     0.893634     0.356538     0.999962    Uiso  ? O
   O47         1.000     0.892622     0.856034     0.501221    Uiso  ? O
   O48         1.000     0.892478     0.855992     0.998256    Uiso  ? O
   O49         1.000     0.395786     0.144701     0.250081    Uiso  ? O
   O50         1.000     0.393471     0.143320     0.750014    Uiso  ? O
   O51         1.000     0.393567     0.643663     0.250489    Uiso  ? O
   O52         1.000     0.393549     0.643442     0.750495    Uiso  ? O
   O53         1.000     0.892653     0.146292     0.250738    Uiso  ? O
   O54         1.000     0.892860     0.143473     0.750532    Uiso  ? O
   O55         1.000     0.893327     0.642839     0.250014    Uiso  ? O
   O56         1.000     0.893382     0.643229     0.749995    Uiso  ? O
   O57         1.000     0.143493     0.393924     0.500317    Uiso  ? O
   O58         1.000     0.143438     0.393895     0.999659    Uiso  ? O
   O59         1.000     0.143888     0.892847     0.501989    Uiso  ? O
   O60         1.000     0.143637     0.892807     0.999362    Uiso  ? O
   O61         1.000     0.643501     0.393709     0.500704    Uiso  ? O
   O62         1.000     0.643464     0.393693     0.000345    Uiso  ? O
   O63         1.000     0.643262     0.893590     0.500243    Uiso  ? O
   O64         1.000     0.643102     0.893526     0.999824    Uiso  ? O
   O65         1.000     0.001266     0.999742     0.378998    Uiso  ? O
   O66         1.000     0.000914     0.999721     0.874157    Uiso  ? O
   O67         1.000     0.999947     0.500064     0.375179    Uiso  ? O
   O68         1.000     0.999911     0.500016     0.874934    Uiso  ? O
   O69         1.000     0.500134     0.000051     0.375168    Uiso  ? O
   O70         1.000     0.500052     0.000119     0.874939    Uiso  ? O
   O71         1.000     0.500758     0.499800     0.375373    Uiso  ? O
   O72         1.000     0.500738     0.499790     0.874806    Uiso  ? O
   O73         1.000     0.251596     0.251983     0.124237    Uiso  ? O
   O74         1.000     0.251190     0.251085     0.625405    Uiso  ? O
   O75         1.000     0.251035     0.749337     0.124727    Uiso  ? O
   O76         1.000     0.251004     0.748723     0.625241    Uiso  ? O
   O77         1.000     0.750135     0.249623     0.124741    Uiso  ? O
   O78         1.000     0.749994     0.250371     0.625228    Uiso  ? O
   O79         1.000     0.748921     0.748636     0.124223    Uiso  ? O
   O80         1.000     0.749318     0.749607     0.625377    Uiso  ? O
   O81         1.000     0.998575     0.000605     0.121068    Uiso  ? O
   O82         1.000     0.999080     0.000281     0.625899    Uiso  ? O
   O83         1.000     0.999953     0.500074     0.124871    Uiso  ? O
   O84         1.000     0.000063     0.500074     0.625113    Uiso  ? O
   O85         1.000     0.499815     0.000076     0.124885    Uiso  ? O
   O86         1.000     0.499865     0.999970     0.625119    Uiso  ? O
   O87         1.000     0.499176     0.500333     0.124681    Uiso  ? O
   O88         1.000     0.499179     0.500344     0.625252    Uiso  ? O
   O89         1.000     0.250998     0.251425     0.375837    Uiso  ? O
   O90         1.000     0.250624     0.250511     0.874680    Uiso  ? O
   O91         1.000     0.249849     0.750440     0.375307    Uiso  ? O
   O92         1.000     0.249901     0.749779     0.874851    Uiso  ? O
   O93         1.000     0.748912     0.250758     0.375349    Uiso  ? O
   O94         1.000     0.748886     0.251435     0.874809    Uiso  ? O
   O95         1.000     0.748356     0.748138     0.375819    Uiso  ? O
   O96         1.000     0.748779     0.749053     0.874656    Uiso  ? O
   Eu1         1.000     0.999954     0.000098     0.250032    Uiso  ? Eu

loop_
   _atom_site_moment_label
   _atom_site_moment_crystalaxis_x
   _atom_site_moment_crystalaxis_y
   _atom_site_moment_crystalaxis_z
   Sr1            0.000000     0.000000     0.000000
   Sr2            0.000000     0.000000     0.000000
   Sr3            0.000000     0.000000     0.000000
   Sr4            0.000000     0.000000     0.000000
   Sr5            0.000000     0.000000     0.000000
   Sr6            0.000000     0.000000     0.000000
   Sr7            0.000000     0.000000     0.000000
   Sr8            0.000000     0.000000     0.000000
   Sr9            0.000000     0.000000     0.000000
   Sr10           0.000000     0.000000     0.000000
   Sr11           0.000000     0.000000     0.000000
   Sr12           0.000000     0.000000     0.000000
   Sr13           0.000000     0.000000     0.000000
   Sr14           0.000000     0.000000     0.000000
   Sr15           0.000000     0.000000     0.000000
   Sr16           0.000000     0.000000     0.000000
   Sr17           0.000000     0.000000     0.000000
   Sr18           0.000000     0.000000     0.000000
   Sr19           0.000000     0.000000     0.000000
   Sr20           0.000000     0.000000     0.000000
   Sr21           0.000000     0.000000     0.000000
   Sr22           0.000000     0.000000     0.000000
   Sr23           0.000000     0.000000     0.000000
   Sr24           0.000000     0.000000     0.000000
   Sr25           0.000000     0.000000     0.000000
   Sr26           0.000000     0.000000     0.000000
   Sr27           0.000000     0.000000     0.000000
   Sr28           0.000000     0.000000     0.000000
   Sr29           0.000000     0.000000     0.000000
   Sr30           0.000000     0.000000     0.000000
   Sr31           0.000000     0.000000     0.000000
   Sr32           0.000000     0.000000     0.000000
   Ti1            0.000000     0.000000     0.000000
   Ti2            0.000000     0.000000     0.000000
   Ti3            0.000000     0.000000     0.000000
   Ti4            0.000000     0.000000     0.000000
   Ti5            0.000000     0.000000     0.000000
   Ti6            0.000000     0.000000     0.000000
   Ti7            0.000000     0.000000     0.000000
   Ti8            0.000000     0.000000     0.000000
   Ti9            0.000000     0.000000     0.000000
   Ti10           0.000000     0.000000     0.000000
   Ti11           0.000000     0.000000     0.000000
   Ti12           0.000000     0.000000     0.000000
   Ti13           0.000000     0.000000     0.000000
   Ti14           0.000000     0.000000     0.000000
   Ti15           0.000000     0.000000     0.000000
   Ti16           0.000000     0.000000     0.000000
   Ti17           0.000000     0.000000     0.000000
   Ti18           0.000000     0.000000     0.000000
   Ti19           0.000000     0.000000     0.000000
   Ti20           0.000000     0.000000     0.000000
   Ti21           0.000000     0.000000     0.000000
   Ti22           0.000000     0.000000     0.000000
   Ti23           0.000000     0.000000     0.000000
   Ti24           0.000000     0.000000     0.000000
   Ti25           0.000000     0.000000     0.000000
   Ti26           0.000000     0.000000     0.000000
   Ti27           0.000000     0.000000     0.000000
   Ti28           0.000000     0.000000     0.000000
   Ti29           0.000000     0.000000     0.000000
   Ti30           0.000000     0.000000     0.000000
   Ti31           0.000000     0.000000     0.000000
   O1             0.000000     0.000000     0.000000
   O2             0.000000     0.000000     0.000000
   O3             0.000000     0.000000     0.000000
   O4             0.000000     0.000000     0.000000
   O5             0.000000     0.000000     0.000000
   O6             0.000000     0.000000     0.000000
   O7             0.000000     0.000000     0.000000
   O8             0.000000     0.000000     0.000000
   O9             0.000000     0.000000     0.000000
   O10            0.000000     0.000000     0.000000
   O11            0.000000     0.000000     0.000000
   O12            0.000000     0.000000     0.000000
   O13            0.000000     0.000000     0.000000
   O14            0.000000     0.000000     0.000000
   O15            0.000000     0.000000     0.000000
   O16            0.000000     0.000000     0.000000
   O17            0.000000     0.000000     0.000000
   O18            0.000000     0.000000     0.000000
   O19            0.000000     0.000000     0.000000
   O20            0.000000     0.000000     0.000000
   O21            0.000000     0.000000     0.000000
   O22            0.000000     0.000000     0.000000
   O23            0.000000     0.000000     0.000000
   O24            0.000000     0.000000     0.000000
   O25            0.000000     0.000000     0.000000
   O26            0.000000     0.000000     0.000000
   O27            0.000000     0.000000     0.000000
   O28            0.000000     0.000000     0.000000
   O29            0.000000     0.000000     0.000000
   O30            0.000000     0.000000     0.000000
   O31           -0.541956    -0.326894    -0.000316
   O32            0.000000     0.000000     0.000000
   O33            0.541846     0.328659    -0.002053
   O34            0.000000     0.000000     0.000000
   O35            0.000000     0.000000     0.000000
   O36            0.000000     0.000000     0.000000
   O37            0.000000     0.000000     0.000000
   O38            0.000000     0.000000     0.000000
   O39            0.000000     0.000000     0.000000
   O40            0.000000     0.000000     0.000000
   O41            0.000000     0.000000     0.000000
   O42            0.000000     0.000000     0.000000
   O43            0.000000     0.000000     0.000000
   O44            0.000000     0.000000     0.000000
   O45            0.000000     0.000000     0.000000
   O46            0.000000     0.000000     0.000000
   O47            0.000000     0.000000     0.000000
   O48            0.000000     0.000000     0.000000
   O49            0.000000     0.000000     0.000000
   O50            0.000000     0.000000     0.000000
   O51            0.000000     0.000000     0.000000
   O52            0.000000     0.000000     0.000000
   O53            0.000000     0.000000     0.000000
   O54            0.000000     0.000000     0.000000
   O55            0.000000     0.000000     0.000000
   O56            0.000000     0.000000     0.000000
   O57            0.000000     0.000000     0.000000
   O58            0.000000     0.000000     0.000000
   O59            0.000000     0.000000     0.000000
   O60            0.000000     0.000000     0.000000
   O61            0.000000     0.000000     0.000000
   O62            0.000000     0.000000     0.000000
   O63            0.000000     0.000000     0.000000
   O64            0.000000     0.000000     0.000000
   O65            0.024815     0.002426     0.612629
   O66            0.000000     0.000000     0.000000
   O67            0.000000     0.000000     0.000000
   O68            0.000000     0.000000     0.000000
   O69            0.000000     0.000000     0.000000
   O70            0.000000     0.000000     0.000000
   O71            0.000000     0.000000     0.000000
   O72            0.000000     0.000000     0.000000
   O73            0.000000     0.000000     0.000000
   O74            0.000000     0.000000     0.000000
   O75            0.000000     0.000000     0.000000
   O76            0.000000     0.000000     0.000000
   O77            0.000000     0.000000     0.000000
   O78            0.000000     0.000000     0.000000
   O79            0.000000     0.000000     0.000000
   O80            0.000000     0.000000     0.000000
   O81           -0.029226     0.009816    -0.612155
   O82            0.000000     0.000000     0.000000
   O83            0.000000     0.000000     0.000000
   O84            0.000000     0.000000     0.000000
   O85            0.000000     0.000000     0.000000
   O86            0.000000     0.000000     0.000000
   O87            0.000000     0.000000     0.000000
   O88            0.000000     0.000000     0.000000
   O89            0.000000     0.000000     0.000000
   O90            0.000000     0.000000     0.000000
   O91            0.000000     0.000000     0.000000
   O92            0.000000     0.000000     0.000000
   O93            0.000000     0.000000     0.000000
   O94            0.000000     0.000000     0.000000
   O95            0.000000     0.000000     0.000000
   O96            0.000000     0.000000     0.000000
   Eu1            0.000000     0.000000     0.000000
